
---------- Begin Simulation Statistics ----------
sim_seconds                                  3.016926                       # Number of seconds simulated
sim_ticks                                3016925909000                       # Number of ticks simulated
final_tick                               3016925909000                       # Number of ticks from beginning of simulation (restored from checkpoints and never reset)
sim_freq                                 1000000000000                       # Frequency of simulated ticks
host_inst_rate                                 156558                       # Simulator instruction rate (inst/s)
host_op_rate                                   441201                       # Simulator op (including micro ops) rate (op/s)
host_tick_rate                              263970598                       # Simulator tick rate (ticks/s)
host_mem_usage                                1280376                       # Number of bytes of host memory used
host_seconds                                 11429.02                       # Real time elapsed on the host
sim_insts                                  1789305577                       # Number of instructions simulated
sim_ops                                    5042493705                       # Number of ops (including micro ops) simulated
system.voltage_domain.voltage                       1                       # Voltage in Volts
system.clk_domain.clock                          1000                       # Clock period in ticks
system.mem_ctrls.bytes_read::ruby.dir_cntrl0    100634304                       # Number of bytes read from this memory
system.mem_ctrls.bytes_read::total          100634304                       # Number of bytes read from this memory
system.mem_ctrls.bytes_written::ruby.dir_cntrl0     53156928                       # Number of bytes written to this memory
system.mem_ctrls.bytes_written::total        53156928                       # Number of bytes written to this memory
system.mem_ctrls.num_reads::ruby.dir_cntrl0      1572411                       # Number of read requests responded to by this memory
system.mem_ctrls.num_reads::total             1572411                       # Number of read requests responded to by this memory
system.mem_ctrls.num_writes::ruby.dir_cntrl0       830577                       # Number of write requests responded to by this memory
system.mem_ctrls.num_writes::total             830577                       # Number of write requests responded to by this memory
system.mem_ctrls.bw_read::ruby.dir_cntrl0     33356571                       # Total read bandwidth from this memory (bytes/s)
system.mem_ctrls.bw_read::total              33356571                       # Total read bandwidth from this memory (bytes/s)
system.mem_ctrls.bw_write::ruby.dir_cntrl0     17619567                       # Write bandwidth from this memory (bytes/s)
system.mem_ctrls.bw_write::total             17619567                       # Write bandwidth from this memory (bytes/s)
system.mem_ctrls.bw_total::ruby.dir_cntrl0     50976138                       # Total bandwidth to/from this memory (bytes/s)
system.mem_ctrls.bw_total::total             50976138                       # Total bandwidth to/from this memory (bytes/s)
system.mem_ctrls.readReqs                     1572411                       # Number of read requests accepted
system.mem_ctrls.writeReqs                     830577                       # Number of write requests accepted
system.mem_ctrls.readBursts                   1572411                       # Number of DRAM read bursts, including those serviced by the write queue
system.mem_ctrls.writeBursts                   830577                       # Number of DRAM write bursts, including those merged in the write queue
system.mem_ctrls.bytesReadDRAM              100630400                       # Total number of bytes read from DRAM
system.mem_ctrls.bytesReadWrQ                    3904                       # Total number of bytes read from write queue
system.mem_ctrls.bytesWritten                53155840                       # Total number of bytes written to DRAM
system.mem_ctrls.bytesReadSys               100634304                       # Total read bytes from the system interface side
system.mem_ctrls.bytesWrittenSys             53156928                       # Total written bytes from the system interface side
system.mem_ctrls.servicedByWrQ                     61                       # Number of DRAM read bursts serviced by the write queue
system.mem_ctrls.mergedWrBursts                     0                       # Number of DRAM write bursts merged with an existing one
system.mem_ctrls.neitherReadNorWriteReqs            0                       # Number of requests that are neither read nor write
system.mem_ctrls.perBankRdBursts::0             98566                       # Per bank write bursts
system.mem_ctrls.perBankRdBursts::1             98099                       # Per bank write bursts
system.mem_ctrls.perBankRdBursts::2             97956                       # Per bank write bursts
system.mem_ctrls.perBankRdBursts::3             97647                       # Per bank write bursts
system.mem_ctrls.perBankRdBursts::4             99758                       # Per bank write bursts
system.mem_ctrls.perBankRdBursts::5            100998                       # Per bank write bursts
system.mem_ctrls.perBankRdBursts::6             97971                       # Per bank write bursts
system.mem_ctrls.perBankRdBursts::7             97582                       # Per bank write bursts
system.mem_ctrls.perBankRdBursts::8             96224                       # Per bank write bursts
system.mem_ctrls.perBankRdBursts::9             98169                       # Per bank write bursts
system.mem_ctrls.perBankRdBursts::10            98701                       # Per bank write bursts
system.mem_ctrls.perBankRdBursts::11            98903                       # Per bank write bursts
system.mem_ctrls.perBankRdBursts::12            97397                       # Per bank write bursts
system.mem_ctrls.perBankRdBursts::13            97329                       # Per bank write bursts
system.mem_ctrls.perBankRdBursts::14            99039                       # Per bank write bursts
system.mem_ctrls.perBankRdBursts::15            98011                       # Per bank write bursts
system.mem_ctrls.perBankWrBursts::0             51827                       # Per bank write bursts
system.mem_ctrls.perBankWrBursts::1             51669                       # Per bank write bursts
system.mem_ctrls.perBankWrBursts::2             51628                       # Per bank write bursts
system.mem_ctrls.perBankWrBursts::3             51573                       # Per bank write bursts
system.mem_ctrls.perBankWrBursts::4             51569                       # Per bank write bursts
system.mem_ctrls.perBankWrBursts::5             52190                       # Per bank write bursts
system.mem_ctrls.perBankWrBursts::6             51664                       # Per bank write bursts
system.mem_ctrls.perBankWrBursts::7             52175                       # Per bank write bursts
system.mem_ctrls.perBankWrBursts::8             51661                       # Per bank write bursts
system.mem_ctrls.perBankWrBursts::9             52450                       # Per bank write bursts
system.mem_ctrls.perBankWrBursts::10            52157                       # Per bank write bursts
system.mem_ctrls.perBankWrBursts::11            52374                       # Per bank write bursts
system.mem_ctrls.perBankWrBursts::12            52180                       # Per bank write bursts
system.mem_ctrls.perBankWrBursts::13            52031                       # Per bank write bursts
system.mem_ctrls.perBankWrBursts::14            51904                       # Per bank write bursts
system.mem_ctrls.perBankWrBursts::15            51508                       # Per bank write bursts
system.mem_ctrls.numRdRetry                         0                       # Number of times read queue was full causing retry
system.mem_ctrls.numWrRetry                         0                       # Number of times write queue was full causing retry
system.mem_ctrls.totGap                  3016925814500                       # Total gap between requests
system.mem_ctrls.readPktSize::0                     0                       # Read request sizes (log2)
system.mem_ctrls.readPktSize::1                     0                       # Read request sizes (log2)
system.mem_ctrls.readPktSize::2                     0                       # Read request sizes (log2)
system.mem_ctrls.readPktSize::3                     0                       # Read request sizes (log2)
system.mem_ctrls.readPktSize::4                     0                       # Read request sizes (log2)
system.mem_ctrls.readPktSize::5                     0                       # Read request sizes (log2)
system.mem_ctrls.readPktSize::6               1572411                       # Read request sizes (log2)
system.mem_ctrls.writePktSize::0                    0                       # Write request sizes (log2)
system.mem_ctrls.writePktSize::1                    0                       # Write request sizes (log2)
system.mem_ctrls.writePktSize::2                    0                       # Write request sizes (log2)
system.mem_ctrls.writePktSize::3                    0                       # Write request sizes (log2)
system.mem_ctrls.writePktSize::4                    0                       # Write request sizes (log2)
system.mem_ctrls.writePktSize::5                    0                       # Write request sizes (log2)
system.mem_ctrls.writePktSize::6               830577                       # Write request sizes (log2)
system.mem_ctrls.rdQLenPdf::0                 1440142                       # What read queue length does an incoming req see
system.mem_ctrls.rdQLenPdf::1                   45452                       # What read queue length does an incoming req see
system.mem_ctrls.rdQLenPdf::2                   38557                       # What read queue length does an incoming req see
system.mem_ctrls.rdQLenPdf::3                   24226                       # What read queue length does an incoming req see
system.mem_ctrls.rdQLenPdf::4                   10851                       # What read queue length does an incoming req see
system.mem_ctrls.rdQLenPdf::5                    7679                       # What read queue length does an incoming req see
system.mem_ctrls.rdQLenPdf::6                    4213                       # What read queue length does an incoming req see
system.mem_ctrls.rdQLenPdf::7                    1230                       # What read queue length does an incoming req see
system.mem_ctrls.rdQLenPdf::8                       0                       # What read queue length does an incoming req see
system.mem_ctrls.rdQLenPdf::9                       0                       # What read queue length does an incoming req see
system.mem_ctrls.rdQLenPdf::10                      0                       # What read queue length does an incoming req see
system.mem_ctrls.rdQLenPdf::11                      0                       # What read queue length does an incoming req see
system.mem_ctrls.rdQLenPdf::12                      0                       # What read queue length does an incoming req see
system.mem_ctrls.rdQLenPdf::13                      0                       # What read queue length does an incoming req see
system.mem_ctrls.rdQLenPdf::14                      0                       # What read queue length does an incoming req see
system.mem_ctrls.rdQLenPdf::15                      0                       # What read queue length does an incoming req see
system.mem_ctrls.rdQLenPdf::16                      0                       # What read queue length does an incoming req see
system.mem_ctrls.rdQLenPdf::17                      0                       # What read queue length does an incoming req see
system.mem_ctrls.rdQLenPdf::18                      0                       # What read queue length does an incoming req see
system.mem_ctrls.rdQLenPdf::19                      0                       # What read queue length does an incoming req see
system.mem_ctrls.rdQLenPdf::20                      0                       # What read queue length does an incoming req see
system.mem_ctrls.rdQLenPdf::21                      0                       # What read queue length does an incoming req see
system.mem_ctrls.rdQLenPdf::22                      0                       # What read queue length does an incoming req see
system.mem_ctrls.rdQLenPdf::23                      0                       # What read queue length does an incoming req see
system.mem_ctrls.rdQLenPdf::24                      0                       # What read queue length does an incoming req see
system.mem_ctrls.rdQLenPdf::25                      0                       # What read queue length does an incoming req see
system.mem_ctrls.rdQLenPdf::26                      0                       # What read queue length does an incoming req see
system.mem_ctrls.rdQLenPdf::27                      0                       # What read queue length does an incoming req see
system.mem_ctrls.rdQLenPdf::28                      0                       # What read queue length does an incoming req see
system.mem_ctrls.rdQLenPdf::29                      0                       # What read queue length does an incoming req see
system.mem_ctrls.rdQLenPdf::30                      0                       # What read queue length does an incoming req see
system.mem_ctrls.rdQLenPdf::31                      0                       # What read queue length does an incoming req see
system.mem_ctrls.wrQLenPdf::0                       1                       # What write queue length does an incoming req see
system.mem_ctrls.wrQLenPdf::1                       1                       # What write queue length does an incoming req see
system.mem_ctrls.wrQLenPdf::2                       1                       # What write queue length does an incoming req see
system.mem_ctrls.wrQLenPdf::3                       1                       # What write queue length does an incoming req see
system.mem_ctrls.wrQLenPdf::4                       1                       # What write queue length does an incoming req see
system.mem_ctrls.wrQLenPdf::5                       1                       # What write queue length does an incoming req see
system.mem_ctrls.wrQLenPdf::6                       1                       # What write queue length does an incoming req see
system.mem_ctrls.wrQLenPdf::7                       1                       # What write queue length does an incoming req see
system.mem_ctrls.wrQLenPdf::8                       1                       # What write queue length does an incoming req see
system.mem_ctrls.wrQLenPdf::9                       1                       # What write queue length does an incoming req see
system.mem_ctrls.wrQLenPdf::10                      1                       # What write queue length does an incoming req see
system.mem_ctrls.wrQLenPdf::11                      1                       # What write queue length does an incoming req see
system.mem_ctrls.wrQLenPdf::12                      1                       # What write queue length does an incoming req see
system.mem_ctrls.wrQLenPdf::13                      1                       # What write queue length does an incoming req see
system.mem_ctrls.wrQLenPdf::14                      1                       # What write queue length does an incoming req see
system.mem_ctrls.wrQLenPdf::15                   1468                       # What write queue length does an incoming req see
system.mem_ctrls.wrQLenPdf::16                   1518                       # What write queue length does an incoming req see
system.mem_ctrls.wrQLenPdf::17                  45540                       # What write queue length does an incoming req see
system.mem_ctrls.wrQLenPdf::18                  47123                       # What write queue length does an incoming req see
system.mem_ctrls.wrQLenPdf::19                  48517                       # What write queue length does an incoming req see
system.mem_ctrls.wrQLenPdf::20                  50310                       # What write queue length does an incoming req see
system.mem_ctrls.wrQLenPdf::21                  51854                       # What write queue length does an incoming req see
system.mem_ctrls.wrQLenPdf::22                  52303                       # What write queue length does an incoming req see
system.mem_ctrls.wrQLenPdf::23                  52428                       # What write queue length does an incoming req see
system.mem_ctrls.wrQLenPdf::24                  52672                       # What write queue length does an incoming req see
system.mem_ctrls.wrQLenPdf::25                  52681                       # What write queue length does an incoming req see
system.mem_ctrls.wrQLenPdf::26                  52806                       # What write queue length does an incoming req see
system.mem_ctrls.wrQLenPdf::27                  52915                       # What write queue length does an incoming req see
system.mem_ctrls.wrQLenPdf::28                  52977                       # What write queue length does an incoming req see
system.mem_ctrls.wrQLenPdf::29                  53156                       # What write queue length does an incoming req see
system.mem_ctrls.wrQLenPdf::30                  53447                       # What write queue length does an incoming req see
system.mem_ctrls.wrQLenPdf::31                  54484                       # What write queue length does an incoming req see
system.mem_ctrls.wrQLenPdf::32                  53680                       # What write queue length does an incoming req see
system.mem_ctrls.wrQLenPdf::33                    393                       # What write queue length does an incoming req see
system.mem_ctrls.wrQLenPdf::34                    128                       # What write queue length does an incoming req see
system.mem_ctrls.wrQLenPdf::35                     65                       # What write queue length does an incoming req see
system.mem_ctrls.wrQLenPdf::36                     37                       # What write queue length does an incoming req see
system.mem_ctrls.wrQLenPdf::37                     19                       # What write queue length does an incoming req see
system.mem_ctrls.wrQLenPdf::38                      8                       # What write queue length does an incoming req see
system.mem_ctrls.wrQLenPdf::39                      5                       # What write queue length does an incoming req see
system.mem_ctrls.wrQLenPdf::40                      3                       # What write queue length does an incoming req see
system.mem_ctrls.wrQLenPdf::41                      3                       # What write queue length does an incoming req see
system.mem_ctrls.wrQLenPdf::42                      3                       # What write queue length does an incoming req see
system.mem_ctrls.wrQLenPdf::43                      4                       # What write queue length does an incoming req see
system.mem_ctrls.wrQLenPdf::44                      3                       # What write queue length does an incoming req see
system.mem_ctrls.wrQLenPdf::45                      2                       # What write queue length does an incoming req see
system.mem_ctrls.wrQLenPdf::46                      2                       # What write queue length does an incoming req see
system.mem_ctrls.wrQLenPdf::47                      2                       # What write queue length does an incoming req see
system.mem_ctrls.wrQLenPdf::48                      2                       # What write queue length does an incoming req see
system.mem_ctrls.wrQLenPdf::49                      2                       # What write queue length does an incoming req see
system.mem_ctrls.wrQLenPdf::50                      2                       # What write queue length does an incoming req see
system.mem_ctrls.wrQLenPdf::51                      0                       # What write queue length does an incoming req see
system.mem_ctrls.wrQLenPdf::52                      0                       # What write queue length does an incoming req see
system.mem_ctrls.wrQLenPdf::53                      0                       # What write queue length does an incoming req see
system.mem_ctrls.wrQLenPdf::54                      0                       # What write queue length does an incoming req see
system.mem_ctrls.wrQLenPdf::55                      0                       # What write queue length does an incoming req see
system.mem_ctrls.wrQLenPdf::56                      0                       # What write queue length does an incoming req see
system.mem_ctrls.wrQLenPdf::57                      0                       # What write queue length does an incoming req see
system.mem_ctrls.wrQLenPdf::58                      0                       # What write queue length does an incoming req see
system.mem_ctrls.wrQLenPdf::59                      0                       # What write queue length does an incoming req see
system.mem_ctrls.wrQLenPdf::60                      0                       # What write queue length does an incoming req see
system.mem_ctrls.wrQLenPdf::61                      0                       # What write queue length does an incoming req see
system.mem_ctrls.wrQLenPdf::62                      0                       # What write queue length does an incoming req see
system.mem_ctrls.wrQLenPdf::63                      0                       # What write queue length does an incoming req see
system.mem_ctrls.bytesPerActivate::samples       347695                       # Bytes accessed per row activation
system.mem_ctrls.bytesPerActivate::mean    442.296242                       # Bytes accessed per row activation
system.mem_ctrls.bytesPerActivate::gmean   319.983196                       # Bytes accessed per row activation
system.mem_ctrls.bytesPerActivate::stdev   316.934494                       # Bytes accessed per row activation
system.mem_ctrls.bytesPerActivate::0-127        49884     14.35%     14.35% # Bytes accessed per row activation
system.mem_ctrls.bytesPerActivate::128-255        42141     12.12%     26.47% # Bytes accessed per row activation
system.mem_ctrls.bytesPerActivate::256-383        89971     25.88%     52.34% # Bytes accessed per row activation
system.mem_ctrls.bytesPerActivate::384-511        35438     10.19%     62.54% # Bytes accessed per row activation
system.mem_ctrls.bytesPerActivate::512-639        32090      9.23%     71.77% # Bytes accessed per row activation
system.mem_ctrls.bytesPerActivate::640-767        25058      7.21%     78.97% # Bytes accessed per row activation
system.mem_ctrls.bytesPerActivate::768-895        16862      4.85%     83.82% # Bytes accessed per row activation
system.mem_ctrls.bytesPerActivate::896-1023        10787      3.10%     86.92% # Bytes accessed per row activation
system.mem_ctrls.bytesPerActivate::1024-1151        45464     13.08%    100.00% # Bytes accessed per row activation
system.mem_ctrls.bytesPerActivate::total       347695                       # Bytes accessed per row activation
system.mem_ctrls.rdPerTurnAround::samples        51714                       # Reads before turning the bus around for writes
system.mem_ctrls.rdPerTurnAround::mean      30.403720                       # Reads before turning the bus around for writes
system.mem_ctrls.rdPerTurnAround::gmean     17.000098                       # Reads before turning the bus around for writes
system.mem_ctrls.rdPerTurnAround::stdev   2636.124554                       # Reads before turning the bus around for writes
system.mem_ctrls.rdPerTurnAround::0-32767        51713    100.00%    100.00% # Reads before turning the bus around for writes
system.mem_ctrls.rdPerTurnAround::589824-622591            1      0.00%    100.00% # Reads before turning the bus around for writes
system.mem_ctrls.rdPerTurnAround::total         51714                       # Reads before turning the bus around for writes
system.mem_ctrls.wrPerTurnAround::samples        51714                       # Writes before turning the bus around for reads
system.mem_ctrls.wrPerTurnAround::mean      16.060641                       # Writes before turning the bus around for reads
system.mem_ctrls.wrPerTurnAround::gmean     16.057076                       # Writes before turning the bus around for reads
system.mem_ctrls.wrPerTurnAround::stdev      0.352724                       # Writes before turning the bus around for reads
system.mem_ctrls.wrPerTurnAround::16            50183     97.04%     97.04% # Writes before turning the bus around for reads
system.mem_ctrls.wrPerTurnAround::17               11      0.02%     97.06% # Writes before turning the bus around for reads
system.mem_ctrls.wrPerTurnAround::18             1471      2.84%     99.91% # Writes before turning the bus around for reads
system.mem_ctrls.wrPerTurnAround::19               25      0.05%     99.95% # Writes before turning the bus around for reads
system.mem_ctrls.wrPerTurnAround::20               17      0.03%     99.99% # Writes before turning the bus around for reads
system.mem_ctrls.wrPerTurnAround::21                3      0.01%     99.99% # Writes before turning the bus around for reads
system.mem_ctrls.wrPerTurnAround::22                3      0.01%    100.00% # Writes before turning the bus around for reads
system.mem_ctrls.wrPerTurnAround::23                1      0.00%    100.00% # Writes before turning the bus around for reads
system.mem_ctrls.wrPerTurnAround::total         51714                       # Writes before turning the bus around for reads
system.mem_ctrls.totQLat                  22874473494                       # Total ticks spent queuing
system.mem_ctrls.totMemAccLat             52356035994                       # Total ticks spent from burst creation until serviced by the DRAM
system.mem_ctrls.totBusLat                 7861750000                       # Total ticks spent in databus transfers
system.mem_ctrls.avgQLat                     14547.95                       # Average queueing delay per DRAM burst
system.mem_ctrls.avgBusLat                    5000.00                       # Average bus latency per DRAM burst
system.mem_ctrls.avgMemAccLat                33297.95                       # Average memory access latency per DRAM burst
system.mem_ctrls.avgRdBW                        33.36                       # Average DRAM read bandwidth in MiByte/s
system.mem_ctrls.avgWrBW                        17.62                       # Average achieved write bandwidth in MiByte/s
system.mem_ctrls.avgRdBWSys                     33.36                       # Average system read bandwidth in MiByte/s
system.mem_ctrls.avgWrBWSys                     17.62                       # Average system write bandwidth in MiByte/s
system.mem_ctrls.peakBW                      12800.00                       # Theoretical peak bandwidth in MiByte/s
system.mem_ctrls.busUtil                         0.40                       # Data bus utilization in percentage
system.mem_ctrls.busUtilRead                     0.26                       # Data bus utilization in percentage for reads
system.mem_ctrls.busUtilWrite                    0.14                       # Data bus utilization in percentage for writes
system.mem_ctrls.avgRdQLen                       1.00                       # Average read queue length when enqueuing
system.mem_ctrls.avgWrQLen                      15.51                       # Average write queue length when enqueuing
system.mem_ctrls.readRowHits                  1300526                       # Number of row buffer hits during reads
system.mem_ctrls.writeRowHits                  754679                       # Number of row buffer hits during writes
system.mem_ctrls.readRowHitRate                 82.71                       # Row buffer hit rate for reads
system.mem_ctrls.writeRowHitRate                90.86                       # Row buffer hit rate for writes
system.mem_ctrls.avgGap                    1255489.34                       # Average gap between requests
system.mem_ctrls.pageHitRate                    85.53                       # Row buffer hit rate, read and write combined
system.mem_ctrls_0.actEnergy               1319212440                       # Energy for activate commands per rank (pJ)
system.mem_ctrls_0.preEnergy                719808375                       # Energy for precharge commands per rank (pJ)
system.mem_ctrls_0.readEnergy              6150791400                       # Energy for read commands per rank (pJ)
system.mem_ctrls_0.writeEnergy             2684631600                       # Energy for write commands per rank (pJ)
system.mem_ctrls_0.refreshEnergy         197050726080                       # Energy for refresh commands per rank (pJ)
system.mem_ctrls_0.actBackEnergy         477161825130                       # Energy for active background per rank (pJ)
system.mem_ctrls_0.preBackEnergy         1391590780500                       # Energy for precharge background per rank (pJ)
system.mem_ctrls_0.totalEnergy           2076677775525                       # Total energy per rank (pJ)
system.mem_ctrls_0.averagePower            688.342988                       # Core power per rank (mW)
system.mem_ctrls_0.memoryStateTime::IDLE 2312257759000                       # Time in different power states
system.mem_ctrls_0.memoryStateTime::REF  100741680000                       # Time in different power states
system.mem_ctrls_0.memoryStateTime::PRE_PDN            0                       # Time in different power states
system.mem_ctrls_0.memoryStateTime::ACT  603923549750                       # Time in different power states
system.mem_ctrls_0.memoryStateTime::ACT_PDN            0                       # Time in different power states
system.mem_ctrls_1.actEnergy               1309346640                       # Energy for activate commands per rank (pJ)
system.mem_ctrls_1.preEnergy                714425250                       # Energy for precharge commands per rank (pJ)
system.mem_ctrls_1.readEnergy              6113242200                       # Energy for read commands per rank (pJ)
system.mem_ctrls_1.writeEnergy             2697397200                       # Energy for write commands per rank (pJ)
system.mem_ctrls_1.refreshEnergy         197050726080                       # Energy for refresh commands per rank (pJ)
system.mem_ctrls_1.actBackEnergy         476475929595                       # Energy for active background per rank (pJ)
system.mem_ctrls_1.preBackEnergy         1392192443250                       # Energy for precharge background per rank (pJ)
system.mem_ctrls_1.totalEnergy           2076553510215                       # Total energy per rank (pJ)
system.mem_ctrls_1.averagePower            688.301799                       # Core power per rank (mW)
system.mem_ctrls_1.memoryStateTime::IDLE 2313275326500                       # Time in different power states
system.mem_ctrls_1.memoryStateTime::REF  100741680000                       # Time in different power states
system.mem_ctrls_1.memoryStateTime::PRE_PDN            0                       # Time in different power states
system.mem_ctrls_1.memoryStateTime::ACT  602906251500                       # Time in different power states
system.mem_ctrls_1.memoryStateTime::ACT_PDN            0                       # Time in different power states
system.cpu_voltage_domain.voltage                   1                       # Voltage in Volts
system.cpu_clk_domain.clock                       500                       # Clock period in ticks
system.cpu0.apic_clk_domain.clock                8000                       # Clock period in ticks
system.cpu0.workload.num_syscalls                 272                       # Number of system calls
system.cpu0.numCycles                      6033851818                       # number of cpu cycles simulated
system.cpu0.numWorkItemsStarted                     0                       # number of work items this cpu started
system.cpu0.numWorkItemsCompleted                   0                       # number of work items this cpu completed
system.cpu0.committedInsts                 1673164217                       # Number of instructions committed
system.cpu0.committedOps                   4810223601                       # Number of ops (including micro ops) committed
system.cpu0.num_int_alu_accesses           4536323594                       # Number of integer alu accesses
system.cpu0.num_fp_alu_accesses             116281176                       # Number of float alu accesses
system.cpu0.num_func_calls                  163074934                       # number of times a function call or return occured
system.cpu0.num_conditional_control_insts    369325488                       # number of instructions that are conditional controls
system.cpu0.num_int_insts                  4536323594                       # number of integer instructions
system.cpu0.num_fp_insts                    116281176                       # number of float instructions
system.cpu0.num_int_register_reads         9551443199                       # number of times the integer registers were read
system.cpu0.num_int_register_writes        4528542823                       # number of times the integer registers were written
system.cpu0.num_fp_register_reads           186868397                       # number of times the floating registers were read
system.cpu0.num_fp_register_writes           91388796                       # number of times the floating registers were written
system.cpu0.num_cc_register_reads          3839549379                       # number of times the CC registers were read
system.cpu0.num_cc_register_writes         1440835930                       # number of times the CC registers were written
system.cpu0.num_mem_refs                    724757228                       # number of memory refs
system.cpu0.num_load_insts                  439893869                       # Number of load instructions
system.cpu0.num_store_insts                 284863359                       # Number of store instructions
system.cpu0.num_idle_cycles                  0.002000                       # Number of idle cycles
system.cpu0.num_busy_cycles              6033851817.998000                       # Number of busy cycles
system.cpu0.not_idle_fraction                1.000000                       # Percentage of non-idle cycles
system.cpu0.idle_fraction                    0.000000                       # Percentage of idle cycles
system.cpu0.Branches                        610578460                       # Number of branches fetched
system.cpu0.op_class::No_OpClass             94599461      1.97%      1.97% # Class of executed instruction
system.cpu0.op_class::IntAlu               3492181085     72.60%     74.57% # Class of executed instruction
system.cpu0.op_class::IntMult                     490      0.00%     74.57% # Class of executed instruction
system.cpu0.op_class::IntDiv                407297348      8.47%     83.03% # Class of executed instruction
system.cpu0.op_class::FloatAdd               91387989      1.90%     84.93% # Class of executed instruction
system.cpu0.op_class::FloatCmp                      0      0.00%     84.93% # Class of executed instruction
system.cpu0.op_class::FloatCvt                      0      0.00%     84.93% # Class of executed instruction
system.cpu0.op_class::FloatMult                     0      0.00%     84.93% # Class of executed instruction
system.cpu0.op_class::FloatDiv                      0      0.00%     84.93% # Class of executed instruction
system.cpu0.op_class::FloatSqrt                     0      0.00%     84.93% # Class of executed instruction
system.cpu0.op_class::SimdAdd                       0      0.00%     84.93% # Class of executed instruction
system.cpu0.op_class::SimdAddAcc                    0      0.00%     84.93% # Class of executed instruction
system.cpu0.op_class::SimdAlu                       0      0.00%     84.93% # Class of executed instruction
system.cpu0.op_class::SimdCmp                       0      0.00%     84.93% # Class of executed instruction
system.cpu0.op_class::SimdCvt                       0      0.00%     84.93% # Class of executed instruction
system.cpu0.op_class::SimdMisc                      0      0.00%     84.93% # Class of executed instruction
system.cpu0.op_class::SimdMult                      0      0.00%     84.93% # Class of executed instruction
system.cpu0.op_class::SimdMultAcc                   0      0.00%     84.93% # Class of executed instruction
system.cpu0.op_class::SimdShift                     0      0.00%     84.93% # Class of executed instruction
system.cpu0.op_class::SimdShiftAcc                  0      0.00%     84.93% # Class of executed instruction
system.cpu0.op_class::SimdSqrt                      0      0.00%     84.93% # Class of executed instruction
system.cpu0.op_class::SimdFloatAdd                  0      0.00%     84.93% # Class of executed instruction
system.cpu0.op_class::SimdFloatAlu                  0      0.00%     84.93% # Class of executed instruction
system.cpu0.op_class::SimdFloatCmp                  0      0.00%     84.93% # Class of executed instruction
system.cpu0.op_class::SimdFloatCvt                  0      0.00%     84.93% # Class of executed instruction
system.cpu0.op_class::SimdFloatDiv                  0      0.00%     84.93% # Class of executed instruction
system.cpu0.op_class::SimdFloatMisc                 0      0.00%     84.93% # Class of executed instruction
system.cpu0.op_class::SimdFloatMult                 0      0.00%     84.93% # Class of executed instruction
system.cpu0.op_class::SimdFloatMultAcc              0      0.00%     84.93% # Class of executed instruction
system.cpu0.op_class::SimdFloatSqrt                 0      0.00%     84.93% # Class of executed instruction
system.cpu0.op_class::MemRead               439893869      9.14%     94.08% # Class of executed instruction
system.cpu0.op_class::MemWrite              284863359      5.92%    100.00% # Class of executed instruction
system.cpu0.op_class::IprAccess                     0      0.00%    100.00% # Class of executed instruction
system.cpu0.op_class::InstPrefetch                  0      0.00%    100.00% # Class of executed instruction
system.cpu0.op_class::total                4810223601                       # Class of executed instruction
system.cpu1.apic_clk_domain.clock                8000                       # Clock period in ticks
system.cpu1.numCycles                      6032587996                       # number of cpu cycles simulated
system.cpu1.numWorkItemsStarted                     0                       # number of work items this cpu started
system.cpu1.numWorkItemsCompleted                   0                       # number of work items this cpu completed
system.cpu1.committedInsts                   14517670                       # Number of instructions committed
system.cpu1.committedOps                     29033763                       # Number of ops (including micro ops) committed
system.cpu1.num_int_alu_accesses             21791563                       # Number of integer alu accesses
system.cpu1.num_fp_alu_accesses              14221533                       # Number of float alu accesses
system.cpu1.num_func_calls                      40491                       # number of times a function call or return occured
system.cpu1.num_conditional_control_insts      1783388                       # number of instructions that are conditional controls
system.cpu1.num_int_insts                    21791563                       # number of integer instructions
system.cpu1.num_fp_insts                     14221533                       # number of float instructions
system.cpu1.num_int_register_reads           38295446                       # number of times the integer registers were read
system.cpu1.num_int_register_writes          13006901                       # number of times the integer registers were written
system.cpu1.num_fp_register_reads            21544607                       # number of times the floating registers were read
system.cpu1.num_fp_register_writes           14201308                       # number of times the floating registers were written
system.cpu1.num_cc_register_reads            10720595                       # number of times the CC registers were read
system.cpu1.num_cc_register_writes           10714264                       # number of times the CC registers were written
system.cpu1.num_mem_refs                      7083855                       # number of memory refs
system.cpu1.num_load_insts                    7043298                       # Number of load instructions
system.cpu1.num_store_insts                     40557                       # Number of store instructions
system.cpu1.num_idle_cycles              5967902861.480104                       # Number of idle cycles
system.cpu1.num_busy_cycles              64685134.519895                       # Number of busy cycles
system.cpu1.not_idle_fraction                0.010723                       # Percentage of non-idle cycles
system.cpu1.idle_fraction                    0.989277                       # Percentage of idle cycles
system.cpu1.Branches                          1845679                       # Number of branches fetched
system.cpu1.op_class::No_OpClass                    2      0.00%      0.00% # Class of executed instruction
system.cpu1.op_class::IntAlu                 14647022     50.45%     50.45% # Class of executed instruction
system.cpu1.op_class::IntMult                   60671      0.21%     50.66% # Class of executed instruction
system.cpu1.op_class::IntDiv                       14      0.00%     50.66% # Class of executed instruction
system.cpu1.op_class::FloatAdd                7242199     24.94%     75.60% # Class of executed instruction
system.cpu1.op_class::FloatCmp                      0      0.00%     75.60% # Class of executed instruction
system.cpu1.op_class::FloatCvt                      0      0.00%     75.60% # Class of executed instruction
system.cpu1.op_class::FloatMult                     0      0.00%     75.60% # Class of executed instruction
system.cpu1.op_class::FloatDiv                      0      0.00%     75.60% # Class of executed instruction
system.cpu1.op_class::FloatSqrt                     0      0.00%     75.60% # Class of executed instruction
system.cpu1.op_class::SimdAdd                       0      0.00%     75.60% # Class of executed instruction
system.cpu1.op_class::SimdAddAcc                    0      0.00%     75.60% # Class of executed instruction
system.cpu1.op_class::SimdAlu                       0      0.00%     75.60% # Class of executed instruction
system.cpu1.op_class::SimdCmp                       0      0.00%     75.60% # Class of executed instruction
system.cpu1.op_class::SimdCvt                       0      0.00%     75.60% # Class of executed instruction
system.cpu1.op_class::SimdMisc                      0      0.00%     75.60% # Class of executed instruction
system.cpu1.op_class::SimdMult                      0      0.00%     75.60% # Class of executed instruction
system.cpu1.op_class::SimdMultAcc                   0      0.00%     75.60% # Class of executed instruction
system.cpu1.op_class::SimdShift                     0      0.00%     75.60% # Class of executed instruction
system.cpu1.op_class::SimdShiftAcc                  0      0.00%     75.60% # Class of executed instruction
system.cpu1.op_class::SimdSqrt                      0      0.00%     75.60% # Class of executed instruction
system.cpu1.op_class::SimdFloatAdd                  0      0.00%     75.60% # Class of executed instruction
system.cpu1.op_class::SimdFloatAlu                  0      0.00%     75.60% # Class of executed instruction
system.cpu1.op_class::SimdFloatCmp                  0      0.00%     75.60% # Class of executed instruction
system.cpu1.op_class::SimdFloatCvt                  0      0.00%     75.60% # Class of executed instruction
system.cpu1.op_class::SimdFloatDiv                  0      0.00%     75.60% # Class of executed instruction
system.cpu1.op_class::SimdFloatMisc                 0      0.00%     75.60% # Class of executed instruction
system.cpu1.op_class::SimdFloatMult                 0      0.00%     75.60% # Class of executed instruction
system.cpu1.op_class::SimdFloatMultAcc              0      0.00%     75.60% # Class of executed instruction
system.cpu1.op_class::SimdFloatSqrt                 0      0.00%     75.60% # Class of executed instruction
system.cpu1.op_class::MemRead                 7043298     24.26%     99.86% # Class of executed instruction
system.cpu1.op_class::MemWrite                  40557      0.14%    100.00% # Class of executed instruction
system.cpu1.op_class::IprAccess                     0      0.00%    100.00% # Class of executed instruction
system.cpu1.op_class::InstPrefetch                  0      0.00%    100.00% # Class of executed instruction
system.cpu1.op_class::total                  29033763                       # Class of executed instruction
system.cpu2.apic_clk_domain.clock                8000                       # Clock period in ticks
system.cpu2.numCycles                      6028863551                       # number of cpu cycles simulated
system.cpu2.numWorkItemsStarted                     0                       # number of work items this cpu started
system.cpu2.numWorkItemsCompleted                   0                       # number of work items this cpu completed
system.cpu2.committedInsts                   14517670                       # Number of instructions committed
system.cpu2.committedOps                     29033763                       # Number of ops (including micro ops) committed
system.cpu2.num_int_alu_accesses             21791563                       # Number of integer alu accesses
system.cpu2.num_fp_alu_accesses              14221533                       # Number of float alu accesses
system.cpu2.num_func_calls                      40491                       # number of times a function call or return occured
system.cpu2.num_conditional_control_insts      1783388                       # number of instructions that are conditional controls
system.cpu2.num_int_insts                    21791563                       # number of integer instructions
system.cpu2.num_fp_insts                     14221533                       # number of float instructions
system.cpu2.num_int_register_reads           38295446                       # number of times the integer registers were read
system.cpu2.num_int_register_writes          13006901                       # number of times the integer registers were written
system.cpu2.num_fp_register_reads            21544607                       # number of times the floating registers were read
system.cpu2.num_fp_register_writes           14201308                       # number of times the floating registers were written
system.cpu2.num_cc_register_reads            10720595                       # number of times the CC registers were read
system.cpu2.num_cc_register_writes           10714264                       # number of times the CC registers were written
system.cpu2.num_mem_refs                      7083855                       # number of memory refs
system.cpu2.num_load_insts                    7043298                       # Number of load instructions
system.cpu2.num_store_insts                     40557                       # Number of store instructions
system.cpu2.num_idle_cycles              5967940454.621395                       # Number of idle cycles
system.cpu2.num_busy_cycles              60923096.378604                       # Number of busy cycles
system.cpu2.not_idle_fraction                0.010105                       # Percentage of non-idle cycles
system.cpu2.idle_fraction                    0.989895                       # Percentage of idle cycles
system.cpu2.Branches                          1845679                       # Number of branches fetched
system.cpu2.op_class::No_OpClass                    2      0.00%      0.00% # Class of executed instruction
system.cpu2.op_class::IntAlu                 14647022     50.45%     50.45% # Class of executed instruction
system.cpu2.op_class::IntMult                   60671      0.21%     50.66% # Class of executed instruction
system.cpu2.op_class::IntDiv                       14      0.00%     50.66% # Class of executed instruction
system.cpu2.op_class::FloatAdd                7242199     24.94%     75.60% # Class of executed instruction
system.cpu2.op_class::FloatCmp                      0      0.00%     75.60% # Class of executed instruction
system.cpu2.op_class::FloatCvt                      0      0.00%     75.60% # Class of executed instruction
system.cpu2.op_class::FloatMult                     0      0.00%     75.60% # Class of executed instruction
system.cpu2.op_class::FloatDiv                      0      0.00%     75.60% # Class of executed instruction
system.cpu2.op_class::FloatSqrt                     0      0.00%     75.60% # Class of executed instruction
system.cpu2.op_class::SimdAdd                       0      0.00%     75.60% # Class of executed instruction
system.cpu2.op_class::SimdAddAcc                    0      0.00%     75.60% # Class of executed instruction
system.cpu2.op_class::SimdAlu                       0      0.00%     75.60% # Class of executed instruction
system.cpu2.op_class::SimdCmp                       0      0.00%     75.60% # Class of executed instruction
system.cpu2.op_class::SimdCvt                       0      0.00%     75.60% # Class of executed instruction
system.cpu2.op_class::SimdMisc                      0      0.00%     75.60% # Class of executed instruction
system.cpu2.op_class::SimdMult                      0      0.00%     75.60% # Class of executed instruction
system.cpu2.op_class::SimdMultAcc                   0      0.00%     75.60% # Class of executed instruction
system.cpu2.op_class::SimdShift                     0      0.00%     75.60% # Class of executed instruction
system.cpu2.op_class::SimdShiftAcc                  0      0.00%     75.60% # Class of executed instruction
system.cpu2.op_class::SimdSqrt                      0      0.00%     75.60% # Class of executed instruction
system.cpu2.op_class::SimdFloatAdd                  0      0.00%     75.60% # Class of executed instruction
system.cpu2.op_class::SimdFloatAlu                  0      0.00%     75.60% # Class of executed instruction
system.cpu2.op_class::SimdFloatCmp                  0      0.00%     75.60% # Class of executed instruction
system.cpu2.op_class::SimdFloatCvt                  0      0.00%     75.60% # Class of executed instruction
system.cpu2.op_class::SimdFloatDiv                  0      0.00%     75.60% # Class of executed instruction
system.cpu2.op_class::SimdFloatMisc                 0      0.00%     75.60% # Class of executed instruction
system.cpu2.op_class::SimdFloatMult                 0      0.00%     75.60% # Class of executed instruction
system.cpu2.op_class::SimdFloatMultAcc              0      0.00%     75.60% # Class of executed instruction
system.cpu2.op_class::SimdFloatSqrt                 0      0.00%     75.60% # Class of executed instruction
system.cpu2.op_class::MemRead                 7043298     24.26%     99.86% # Class of executed instruction
system.cpu2.op_class::MemWrite                  40557      0.14%    100.00% # Class of executed instruction
system.cpu2.op_class::IprAccess                     0      0.00%    100.00% # Class of executed instruction
system.cpu2.op_class::InstPrefetch                  0      0.00%    100.00% # Class of executed instruction
system.cpu2.op_class::total                  29033763                       # Class of executed instruction
system.cpu3.apic_clk_domain.clock                8000                       # Clock period in ticks
system.cpu3.numCycles                      6033367719                       # number of cpu cycles simulated
system.cpu3.numWorkItemsStarted                     0                       # number of work items this cpu started
system.cpu3.numWorkItemsCompleted                   0                       # number of work items this cpu completed
system.cpu3.committedInsts                   14517670                       # Number of instructions committed
system.cpu3.committedOps                     29033763                       # Number of ops (including micro ops) committed
system.cpu3.num_int_alu_accesses             21791563                       # Number of integer alu accesses
system.cpu3.num_fp_alu_accesses              14221533                       # Number of float alu accesses
system.cpu3.num_func_calls                      40491                       # number of times a function call or return occured
system.cpu3.num_conditional_control_insts      1783388                       # number of instructions that are conditional controls
system.cpu3.num_int_insts                    21791563                       # number of integer instructions
system.cpu3.num_fp_insts                     14221533                       # number of float instructions
system.cpu3.num_int_register_reads           38295446                       # number of times the integer registers were read
system.cpu3.num_int_register_writes          13006901                       # number of times the integer registers were written
system.cpu3.num_fp_register_reads            21544607                       # number of times the floating registers were read
system.cpu3.num_fp_register_writes           14201308                       # number of times the floating registers were written
system.cpu3.num_cc_register_reads            10720595                       # number of times the CC registers were read
system.cpu3.num_cc_register_writes           10714264                       # number of times the CC registers were written
system.cpu3.num_mem_refs                      7083855                       # number of memory refs
system.cpu3.num_load_insts                    7043298                       # Number of load instructions
system.cpu3.num_store_insts                     40557                       # Number of store instructions
system.cpu3.num_idle_cycles              5967895906.258327                       # Number of idle cycles
system.cpu3.num_busy_cycles              65471812.741673                       # Number of busy cycles
system.cpu3.not_idle_fraction                0.010852                       # Percentage of non-idle cycles
system.cpu3.idle_fraction                    0.989148                       # Percentage of idle cycles
system.cpu3.Branches                          1845679                       # Number of branches fetched
system.cpu3.op_class::No_OpClass                    2      0.00%      0.00% # Class of executed instruction
system.cpu3.op_class::IntAlu                 14647022     50.45%     50.45% # Class of executed instruction
system.cpu3.op_class::IntMult                   60671      0.21%     50.66% # Class of executed instruction
system.cpu3.op_class::IntDiv                       14      0.00%     50.66% # Class of executed instruction
system.cpu3.op_class::FloatAdd                7242199     24.94%     75.60% # Class of executed instruction
system.cpu3.op_class::FloatCmp                      0      0.00%     75.60% # Class of executed instruction
system.cpu3.op_class::FloatCvt                      0      0.00%     75.60% # Class of executed instruction
system.cpu3.op_class::FloatMult                     0      0.00%     75.60% # Class of executed instruction
system.cpu3.op_class::FloatDiv                      0      0.00%     75.60% # Class of executed instruction
system.cpu3.op_class::FloatSqrt                     0      0.00%     75.60% # Class of executed instruction
system.cpu3.op_class::SimdAdd                       0      0.00%     75.60% # Class of executed instruction
system.cpu3.op_class::SimdAddAcc                    0      0.00%     75.60% # Class of executed instruction
system.cpu3.op_class::SimdAlu                       0      0.00%     75.60% # Class of executed instruction
system.cpu3.op_class::SimdCmp                       0      0.00%     75.60% # Class of executed instruction
system.cpu3.op_class::SimdCvt                       0      0.00%     75.60% # Class of executed instruction
system.cpu3.op_class::SimdMisc                      0      0.00%     75.60% # Class of executed instruction
system.cpu3.op_class::SimdMult                      0      0.00%     75.60% # Class of executed instruction
system.cpu3.op_class::SimdMultAcc                   0      0.00%     75.60% # Class of executed instruction
system.cpu3.op_class::SimdShift                     0      0.00%     75.60% # Class of executed instruction
system.cpu3.op_class::SimdShiftAcc                  0      0.00%     75.60% # Class of executed instruction
system.cpu3.op_class::SimdSqrt                      0      0.00%     75.60% # Class of executed instruction
system.cpu3.op_class::SimdFloatAdd                  0      0.00%     75.60% # Class of executed instruction
system.cpu3.op_class::SimdFloatAlu                  0      0.00%     75.60% # Class of executed instruction
system.cpu3.op_class::SimdFloatCmp                  0      0.00%     75.60% # Class of executed instruction
system.cpu3.op_class::SimdFloatCvt                  0      0.00%     75.60% # Class of executed instruction
system.cpu3.op_class::SimdFloatDiv                  0      0.00%     75.60% # Class of executed instruction
system.cpu3.op_class::SimdFloatMisc                 0      0.00%     75.60% # Class of executed instruction
system.cpu3.op_class::SimdFloatMult                 0      0.00%     75.60% # Class of executed instruction
system.cpu3.op_class::SimdFloatMultAcc              0      0.00%     75.60% # Class of executed instruction
system.cpu3.op_class::SimdFloatSqrt                 0      0.00%     75.60% # Class of executed instruction
system.cpu3.op_class::MemRead                 7043298     24.26%     99.86% # Class of executed instruction
system.cpu3.op_class::MemWrite                  40557      0.14%    100.00% # Class of executed instruction
system.cpu3.op_class::IprAccess                     0      0.00%    100.00% # Class of executed instruction
system.cpu3.op_class::InstPrefetch                  0      0.00%    100.00% # Class of executed instruction
system.cpu3.op_class::total                  29033763                       # Class of executed instruction
system.cpu4.apic_clk_domain.clock                8000                       # Clock period in ticks
system.cpu4.numCycles                      6030588767                       # number of cpu cycles simulated
system.cpu4.numWorkItemsStarted                     0                       # number of work items this cpu started
system.cpu4.numWorkItemsCompleted                   0                       # number of work items this cpu completed
system.cpu4.committedInsts                   14517670                       # Number of instructions committed
system.cpu4.committedOps                     29033763                       # Number of ops (including micro ops) committed
system.cpu4.num_int_alu_accesses             21791563                       # Number of integer alu accesses
system.cpu4.num_fp_alu_accesses              14221533                       # Number of float alu accesses
system.cpu4.num_func_calls                      40491                       # number of times a function call or return occured
system.cpu4.num_conditional_control_insts      1783388                       # number of instructions that are conditional controls
system.cpu4.num_int_insts                    21791563                       # number of integer instructions
system.cpu4.num_fp_insts                     14221533                       # number of float instructions
system.cpu4.num_int_register_reads           38295446                       # number of times the integer registers were read
system.cpu4.num_int_register_writes          13006901                       # number of times the integer registers were written
system.cpu4.num_fp_register_reads            21544607                       # number of times the floating registers were read
system.cpu4.num_fp_register_writes           14201308                       # number of times the floating registers were written
system.cpu4.num_cc_register_reads            10720595                       # number of times the CC registers were read
system.cpu4.num_cc_register_writes           10714264                       # number of times the CC registers were written
system.cpu4.num_mem_refs                      7083855                       # number of memory refs
system.cpu4.num_load_insts                    7043298                       # Number of load instructions
system.cpu4.num_store_insts                     40557                       # Number of store instructions
system.cpu4.num_idle_cycles              5967925388.109200                       # Number of idle cycles
system.cpu4.num_busy_cycles              62663378.890799                       # Number of busy cycles
system.cpu4.not_idle_fraction                0.010391                       # Percentage of non-idle cycles
system.cpu4.idle_fraction                    0.989609                       # Percentage of idle cycles
system.cpu4.Branches                          1845679                       # Number of branches fetched
system.cpu4.op_class::No_OpClass                    2      0.00%      0.00% # Class of executed instruction
system.cpu4.op_class::IntAlu                 14647022     50.45%     50.45% # Class of executed instruction
system.cpu4.op_class::IntMult                   60671      0.21%     50.66% # Class of executed instruction
system.cpu4.op_class::IntDiv                       14      0.00%     50.66% # Class of executed instruction
system.cpu4.op_class::FloatAdd                7242199     24.94%     75.60% # Class of executed instruction
system.cpu4.op_class::FloatCmp                      0      0.00%     75.60% # Class of executed instruction
system.cpu4.op_class::FloatCvt                      0      0.00%     75.60% # Class of executed instruction
system.cpu4.op_class::FloatMult                     0      0.00%     75.60% # Class of executed instruction
system.cpu4.op_class::FloatDiv                      0      0.00%     75.60% # Class of executed instruction
system.cpu4.op_class::FloatSqrt                     0      0.00%     75.60% # Class of executed instruction
system.cpu4.op_class::SimdAdd                       0      0.00%     75.60% # Class of executed instruction
system.cpu4.op_class::SimdAddAcc                    0      0.00%     75.60% # Class of executed instruction
system.cpu4.op_class::SimdAlu                       0      0.00%     75.60% # Class of executed instruction
system.cpu4.op_class::SimdCmp                       0      0.00%     75.60% # Class of executed instruction
system.cpu4.op_class::SimdCvt                       0      0.00%     75.60% # Class of executed instruction
system.cpu4.op_class::SimdMisc                      0      0.00%     75.60% # Class of executed instruction
system.cpu4.op_class::SimdMult                      0      0.00%     75.60% # Class of executed instruction
system.cpu4.op_class::SimdMultAcc                   0      0.00%     75.60% # Class of executed instruction
system.cpu4.op_class::SimdShift                     0      0.00%     75.60% # Class of executed instruction
system.cpu4.op_class::SimdShiftAcc                  0      0.00%     75.60% # Class of executed instruction
system.cpu4.op_class::SimdSqrt                      0      0.00%     75.60% # Class of executed instruction
system.cpu4.op_class::SimdFloatAdd                  0      0.00%     75.60% # Class of executed instruction
system.cpu4.op_class::SimdFloatAlu                  0      0.00%     75.60% # Class of executed instruction
system.cpu4.op_class::SimdFloatCmp                  0      0.00%     75.60% # Class of executed instruction
system.cpu4.op_class::SimdFloatCvt                  0      0.00%     75.60% # Class of executed instruction
system.cpu4.op_class::SimdFloatDiv                  0      0.00%     75.60% # Class of executed instruction
system.cpu4.op_class::SimdFloatMisc                 0      0.00%     75.60% # Class of executed instruction
system.cpu4.op_class::SimdFloatMult                 0      0.00%     75.60% # Class of executed instruction
system.cpu4.op_class::SimdFloatMultAcc              0      0.00%     75.60% # Class of executed instruction
system.cpu4.op_class::SimdFloatSqrt                 0      0.00%     75.60% # Class of executed instruction
system.cpu4.op_class::MemRead                 7043298     24.26%     99.86% # Class of executed instruction
system.cpu4.op_class::MemWrite                  40557      0.14%    100.00% # Class of executed instruction
system.cpu4.op_class::IprAccess                     0      0.00%    100.00% # Class of executed instruction
system.cpu4.op_class::InstPrefetch                  0      0.00%    100.00% # Class of executed instruction
system.cpu4.op_class::total                  29033763                       # Class of executed instruction
system.cpu5.apic_clk_domain.clock                8000                       # Clock period in ticks
system.cpu5.numCycles                      6032588201                       # number of cpu cycles simulated
system.cpu5.numWorkItemsStarted                     0                       # number of work items this cpu started
system.cpu5.numWorkItemsCompleted                   0                       # number of work items this cpu completed
system.cpu5.committedInsts                   14517670                       # Number of instructions committed
system.cpu5.committedOps                     29033763                       # Number of ops (including micro ops) committed
system.cpu5.num_int_alu_accesses             21791563                       # Number of integer alu accesses
system.cpu5.num_fp_alu_accesses              14221533                       # Number of float alu accesses
system.cpu5.num_func_calls                      40491                       # number of times a function call or return occured
system.cpu5.num_conditional_control_insts      1783388                       # number of instructions that are conditional controls
system.cpu5.num_int_insts                    21791563                       # number of integer instructions
system.cpu5.num_fp_insts                     14221533                       # number of float instructions
system.cpu5.num_int_register_reads           38295446                       # number of times the integer registers were read
system.cpu5.num_int_register_writes          13006901                       # number of times the integer registers were written
system.cpu5.num_fp_register_reads            21544607                       # number of times the floating registers were read
system.cpu5.num_fp_register_writes           14201308                       # number of times the floating registers were written
system.cpu5.num_cc_register_reads            10720595                       # number of times the CC registers were read
system.cpu5.num_cc_register_writes           10714264                       # number of times the CC registers were written
system.cpu5.num_mem_refs                      7083855                       # number of memory refs
system.cpu5.num_load_insts                    7043298                       # Number of load instructions
system.cpu5.num_store_insts                     40557                       # Number of store instructions
system.cpu5.num_idle_cycles              5967905857.696845                       # Number of idle cycles
system.cpu5.num_busy_cycles              64682343.303155                       # Number of busy cycles
system.cpu5.not_idle_fraction                0.010722                       # Percentage of non-idle cycles
system.cpu5.idle_fraction                    0.989278                       # Percentage of idle cycles
system.cpu5.Branches                          1845679                       # Number of branches fetched
system.cpu5.op_class::No_OpClass                    2      0.00%      0.00% # Class of executed instruction
system.cpu5.op_class::IntAlu                 14647022     50.45%     50.45% # Class of executed instruction
system.cpu5.op_class::IntMult                   60671      0.21%     50.66% # Class of executed instruction
system.cpu5.op_class::IntDiv                       14      0.00%     50.66% # Class of executed instruction
system.cpu5.op_class::FloatAdd                7242199     24.94%     75.60% # Class of executed instruction
system.cpu5.op_class::FloatCmp                      0      0.00%     75.60% # Class of executed instruction
system.cpu5.op_class::FloatCvt                      0      0.00%     75.60% # Class of executed instruction
system.cpu5.op_class::FloatMult                     0      0.00%     75.60% # Class of executed instruction
system.cpu5.op_class::FloatDiv                      0      0.00%     75.60% # Class of executed instruction
system.cpu5.op_class::FloatSqrt                     0      0.00%     75.60% # Class of executed instruction
system.cpu5.op_class::SimdAdd                       0      0.00%     75.60% # Class of executed instruction
system.cpu5.op_class::SimdAddAcc                    0      0.00%     75.60% # Class of executed instruction
system.cpu5.op_class::SimdAlu                       0      0.00%     75.60% # Class of executed instruction
system.cpu5.op_class::SimdCmp                       0      0.00%     75.60% # Class of executed instruction
system.cpu5.op_class::SimdCvt                       0      0.00%     75.60% # Class of executed instruction
system.cpu5.op_class::SimdMisc                      0      0.00%     75.60% # Class of executed instruction
system.cpu5.op_class::SimdMult                      0      0.00%     75.60% # Class of executed instruction
system.cpu5.op_class::SimdMultAcc                   0      0.00%     75.60% # Class of executed instruction
system.cpu5.op_class::SimdShift                     0      0.00%     75.60% # Class of executed instruction
system.cpu5.op_class::SimdShiftAcc                  0      0.00%     75.60% # Class of executed instruction
system.cpu5.op_class::SimdSqrt                      0      0.00%     75.60% # Class of executed instruction
system.cpu5.op_class::SimdFloatAdd                  0      0.00%     75.60% # Class of executed instruction
system.cpu5.op_class::SimdFloatAlu                  0      0.00%     75.60% # Class of executed instruction
system.cpu5.op_class::SimdFloatCmp                  0      0.00%     75.60% # Class of executed instruction
system.cpu5.op_class::SimdFloatCvt                  0      0.00%     75.60% # Class of executed instruction
system.cpu5.op_class::SimdFloatDiv                  0      0.00%     75.60% # Class of executed instruction
system.cpu5.op_class::SimdFloatMisc                 0      0.00%     75.60% # Class of executed instruction
system.cpu5.op_class::SimdFloatMult                 0      0.00%     75.60% # Class of executed instruction
system.cpu5.op_class::SimdFloatMultAcc              0      0.00%     75.60% # Class of executed instruction
system.cpu5.op_class::SimdFloatSqrt                 0      0.00%     75.60% # Class of executed instruction
system.cpu5.op_class::MemRead                 7043298     24.26%     99.86% # Class of executed instruction
system.cpu5.op_class::MemWrite                  40557      0.14%    100.00% # Class of executed instruction
system.cpu5.op_class::IprAccess                     0      0.00%    100.00% # Class of executed instruction
system.cpu5.op_class::InstPrefetch                  0      0.00%    100.00% # Class of executed instruction
system.cpu5.op_class::total                  29033763                       # Class of executed instruction
system.cpu6.apic_clk_domain.clock                8000                       # Clock period in ticks
system.cpu6.numCycles                      6031808316                       # number of cpu cycles simulated
system.cpu6.numWorkItemsStarted                     0                       # number of work items this cpu started
system.cpu6.numWorkItemsCompleted                   0                       # number of work items this cpu completed
system.cpu6.committedInsts                   14517670                       # Number of instructions committed
system.cpu6.committedOps                     29033763                       # Number of ops (including micro ops) committed
system.cpu6.num_int_alu_accesses             21791563                       # Number of integer alu accesses
system.cpu6.num_fp_alu_accesses              14221533                       # Number of float alu accesses
system.cpu6.num_func_calls                      40491                       # number of times a function call or return occured
system.cpu6.num_conditional_control_insts      1783388                       # number of instructions that are conditional controls
system.cpu6.num_int_insts                    21791563                       # number of integer instructions
system.cpu6.num_fp_insts                     14221533                       # number of float instructions
system.cpu6.num_int_register_reads           38295446                       # number of times the integer registers were read
system.cpu6.num_int_register_writes          13006901                       # number of times the integer registers were written
system.cpu6.num_fp_register_reads            21544607                       # number of times the floating registers were read
system.cpu6.num_fp_register_writes           14201308                       # number of times the floating registers were written
system.cpu6.num_cc_register_reads            10720595                       # number of times the CC registers were read
system.cpu6.num_cc_register_writes           10714264                       # number of times the CC registers were written
system.cpu6.num_mem_refs                      7083855                       # number of memory refs
system.cpu6.num_load_insts                    7043298                       # Number of load instructions
system.cpu6.num_store_insts                     40557                       # Number of store instructions
system.cpu6.num_idle_cycles              5967914832.321463                       # Number of idle cycles
system.cpu6.num_busy_cycles              63893483.678537                       # Number of busy cycles
system.cpu6.not_idle_fraction                0.010593                       # Percentage of non-idle cycles
system.cpu6.idle_fraction                    0.989407                       # Percentage of idle cycles
system.cpu6.Branches                          1845679                       # Number of branches fetched
system.cpu6.op_class::No_OpClass                    2      0.00%      0.00% # Class of executed instruction
system.cpu6.op_class::IntAlu                 14647022     50.45%     50.45% # Class of executed instruction
system.cpu6.op_class::IntMult                   60671      0.21%     50.66% # Class of executed instruction
system.cpu6.op_class::IntDiv                       14      0.00%     50.66% # Class of executed instruction
system.cpu6.op_class::FloatAdd                7242199     24.94%     75.60% # Class of executed instruction
system.cpu6.op_class::FloatCmp                      0      0.00%     75.60% # Class of executed instruction
system.cpu6.op_class::FloatCvt                      0      0.00%     75.60% # Class of executed instruction
system.cpu6.op_class::FloatMult                     0      0.00%     75.60% # Class of executed instruction
system.cpu6.op_class::FloatDiv                      0      0.00%     75.60% # Class of executed instruction
system.cpu6.op_class::FloatSqrt                     0      0.00%     75.60% # Class of executed instruction
system.cpu6.op_class::SimdAdd                       0      0.00%     75.60% # Class of executed instruction
system.cpu6.op_class::SimdAddAcc                    0      0.00%     75.60% # Class of executed instruction
system.cpu6.op_class::SimdAlu                       0      0.00%     75.60% # Class of executed instruction
system.cpu6.op_class::SimdCmp                       0      0.00%     75.60% # Class of executed instruction
system.cpu6.op_class::SimdCvt                       0      0.00%     75.60% # Class of executed instruction
system.cpu6.op_class::SimdMisc                      0      0.00%     75.60% # Class of executed instruction
system.cpu6.op_class::SimdMult                      0      0.00%     75.60% # Class of executed instruction
system.cpu6.op_class::SimdMultAcc                   0      0.00%     75.60% # Class of executed instruction
system.cpu6.op_class::SimdShift                     0      0.00%     75.60% # Class of executed instruction
system.cpu6.op_class::SimdShiftAcc                  0      0.00%     75.60% # Class of executed instruction
system.cpu6.op_class::SimdSqrt                      0      0.00%     75.60% # Class of executed instruction
system.cpu6.op_class::SimdFloatAdd                  0      0.00%     75.60% # Class of executed instruction
system.cpu6.op_class::SimdFloatAlu                  0      0.00%     75.60% # Class of executed instruction
system.cpu6.op_class::SimdFloatCmp                  0      0.00%     75.60% # Class of executed instruction
system.cpu6.op_class::SimdFloatCvt                  0      0.00%     75.60% # Class of executed instruction
system.cpu6.op_class::SimdFloatDiv                  0      0.00%     75.60% # Class of executed instruction
system.cpu6.op_class::SimdFloatMisc                 0      0.00%     75.60% # Class of executed instruction
system.cpu6.op_class::SimdFloatMult                 0      0.00%     75.60% # Class of executed instruction
system.cpu6.op_class::SimdFloatMultAcc              0      0.00%     75.60% # Class of executed instruction
system.cpu6.op_class::SimdFloatSqrt                 0      0.00%     75.60% # Class of executed instruction
system.cpu6.op_class::MemRead                 7043298     24.26%     99.86% # Class of executed instruction
system.cpu6.op_class::MemWrite                  40557      0.14%    100.00% # Class of executed instruction
system.cpu6.op_class::IprAccess                     0      0.00%    100.00% # Class of executed instruction
system.cpu6.op_class::InstPrefetch                  0      0.00%    100.00% # Class of executed instruction
system.cpu6.op_class::total                  29033763                       # Class of executed instruction
system.cpu7.apic_clk_domain.clock                8000                       # Clock period in ticks
system.cpu7.numCycles                      6033479876                       # number of cpu cycles simulated
system.cpu7.numWorkItemsStarted                     0                       # number of work items this cpu started
system.cpu7.numWorkItemsCompleted                   0                       # number of work items this cpu completed
system.cpu7.committedInsts                   14517670                       # Number of instructions committed
[...]
system.ruby.L1Cache_Controller.M.WriteBack::total      2869398                      
system.ruby.L1Cache_Controller.M.L0_Invalidate_Own |         880     90.91%     90.91% |           3      0.31%     91.22% |           4      0.41%     91.63% |          18      1.86%     93.49% |           1      0.10%     93.60% |           1      0.10%     93.70% |           5      0.52%     94.21% |          50      5.17%     99.38% |           6      0.62%    100.00%
system.ruby.L1Cache_Controller.M.L0_Invalidate_Own::total          968                      
system.ruby.L1Cache_Controller.M.L0_Invalidate_Else |        1007     36.50%     36.50% |          14      0.51%     37.01% |         292     10.58%     47.59% |          55      1.99%     49.58% |          34      1.23%     50.82% |        1293     46.86%     97.68% |          12      0.43%     98.12% |          32      1.16%     99.28% |          20      0.72%    100.00%
system.ruby.L1Cache_Controller.M.L0_Invalidate_Else::total         2759                      
system.ruby.L1Cache_Controller.MM.Load   |         225      0.04%      0.04% |       70587     12.28%     12.32% |       71828     12.49%     24.81% |       73080     12.71%     37.53% |       71891     12.51%     50.03% |       69302     12.06%     62.09% |       72187     12.56%     74.64% |       72711     12.65%     87.29% |       73044     12.71%    100.00%
system.ruby.L1Cache_Controller.MM.Load::total       574855                      
system.ruby.L1Cache_Controller.MM.Store  |          76     95.00%     95.00% |           0      0.00%     95.00% |           0      0.00%     95.00% |           1      1.25%     96.25% |           1      1.25%     97.50% |           0      0.00%     97.50% |           0      0.00%     97.50% |           1      1.25%     98.75% |           1      1.25%    100.00%
system.ruby.L1Cache_Controller.MM.Store::total           80                      
system.ruby.L1Cache_Controller.MM.Inv    |         360      0.68%      0.68% |        5916     11.23%     11.91% |         479      0.91%     12.82% |       17095     32.44%     45.26% |        4122      7.82%     53.08% |        6119     11.61%     64.69% |         308      0.58%     65.27% |        7869     14.93%     80.20% |       10433     19.80%    100.00%
system.ruby.L1Cache_Controller.MM.Inv::total        52701                      
system.ruby.L1Cache_Controller.MM.L1_Replacement |     2281753     52.83%     52.83% |      232359      5.38%     58.22% |      359176      8.32%     66.53% |      219351      5.08%     71.61% |      302707      7.01%     78.62% |      233179      5.40%     84.02% |      236241      5.47%     89.49% |      228897      5.30%     94.79% |      224996      5.21%    100.00%
system.ruby.L1Cache_Controller.MM.L1_Replacement::total      4318659                      
system.ruby.L1Cache_Controller.MM.Fwd_GETX |           1      3.85%      3.85% |           4     15.38%     19.23% |           3     11.54%     30.77% |           3     11.54%     42.31% |           4     15.38%     57.69% |           4     15.38%     73.08% |           3     11.54%     84.62% |           2      7.69%     92.31% |           2      7.69%    100.00%
system.ruby.L1Cache_Controller.MM.Fwd_GETX::total           26                      
system.ruby.L1Cache_Controller.MM.Fwd_GETS |        7752      6.21%      6.21% |           6      0.00%      6.22% |         401      0.32%      6.54% |           6      0.00%      6.54% |       51886     41.58%     48.12% |           6      0.00%     48.13% |       64720     51.86%     99.99% |           7      0.01%    100.00% |           3      0.00%    100.00%
system.ruby.L1Cache_Controller.MM.Fwd_GETS::total       124787                      
system.ruby.L1Cache_Controller.IS.Data_Exclusive |        7490      0.34%      0.34% |      239219     10.72%     11.06% |      364081     16.32%     27.37% |      237266     10.63%     38.01% |      360364     16.15%     54.16% |      240215     10.77%     64.93% |      308360     13.82%     78.75% |      237499     10.64%     89.39% |      236730     10.61%    100.00%
system.ruby.L1Cache_Controller.IS.Data_Exclusive::total      2231224                      
system.ruby.L1Cache_Controller.IS.DataS_fromL1 |          78      0.06%      0.06% |        4279      3.22%      3.28% |        7745      5.84%      9.12% |           3      0.00%      9.12% |        2088      1.57%     10.70% |       66596     50.19%     60.89% |       51891     39.11%     99.99% |           2      0.00%    100.00% |           5      0.00%    100.00%
system.ruby.L1Cache_Controller.IS.DataS_fromL1::total       132687                      
system.ruby.L1Cache_Controller.IS.Data_all_Acks |          14      0.00%      0.00% |      130361     20.88%     20.89% |         572      0.09%     20.98% |      134651     21.57%     42.55% |        9710      1.56%     44.11% |       67987     10.89%     55.00% |       11817      1.89%     56.89% |      134550     21.56%     78.45% |      134534     21.55%    100.00%
system.ruby.L1Cache_Controller.IS.Data_all_Acks::total       624196                      
system.ruby.L1Cache_Controller.IM.Data   |           1    100.00%    100.00% |           0      0.00%    100.00% |           0      0.00%    100.00% |           0      0.00%    100.00% |           0      0.00%    100.00% |           0      0.00%    100.00% |           0      0.00%    100.00% |           0      0.00%    100.00% |           0      0.00%    100.00%
system.ruby.L1Cache_Controller.IM.Data::total            1                      
system.ruby.L1Cache_Controller.IM.Data_all_Acks |     2288241     99.55%     99.55% |        1280      0.06%     99.61% |        1280      0.06%     99.67% |        1288      0.06%     99.72% |        1279      0.06%     99.78% |        1279      0.06%     99.83% |        1284      0.06%     99.89% |        1283      0.06%     99.94% |        1285      0.06%    100.00%
system.ruby.L1Cache_Controller.IM.Data_all_Acks::total      2298499                      
system.ruby.L1Cache_Controller.SM.Ack    |         152     95.00%     95.00% |           1      0.62%     95.62% |           1      0.62%     96.25% |           1      0.62%     96.87% |           1      0.62%     97.50% |           1      0.62%     98.12% |           1      0.62%     98.75% |           1      0.62%     99.37% |           1      0.62%    100.00%
system.ruby.L1Cache_Controller.SM.Ack::total          160                      
system.ruby.L1Cache_Controller.SM.Ack_all |          80     90.91%     90.91% |           1      1.14%     92.05% |           1      1.14%     93.18% |           1      1.14%     94.32% |           1      1.14%     95.45% |           1      1.14%     96.59% |           1      1.14%     97.73% |           1      1.14%     98.86% |           1      1.14%    100.00%
system.ruby.L1Cache_Controller.SM.Ack_all::total           88                      
system.ruby.L1Cache_Controller.M_I.Fwd_GETS |           0      0.00%      0.00% |           0      0.00%      0.00% |           0      0.00%      0.00% |           0      0.00%      0.00% |           1    100.00%    100.00% |           0      0.00%    100.00% |           0      0.00%    100.00% |           0      0.00%    100.00% |           0      0.00%    100.00%
system.ruby.L1Cache_Controller.M_I.Fwd_GETS::total            1                      
system.ruby.L1Cache_Controller.M_I.WB_Ack |     2286693     52.68%     52.68% |      234370      5.40%     58.08% |      362621      8.35%     66.43% |      221269      5.10%     71.53% |      304771      7.02%     78.55% |      235181      5.42%     83.96% |      238287      5.49%     89.45% |      230862      5.32%     94.77% |      226968      5.23%    100.00%
system.ruby.L1Cache_Controller.M_I.WB_Ack::total      4341022                      
system.ruby.L1Cache_Controller.SINK_WB_ACK.WB_Ack |           0      0.00%      0.00% |           0      0.00%      0.00% |           0      0.00%      0.00% |           0      0.00%      0.00% |           1    100.00%    100.00% |           0      0.00%    100.00% |           0      0.00%    100.00% |           0      0.00%    100.00% |           0      0.00%    100.00%
system.ruby.L1Cache_Controller.SINK_WB_ACK.WB_Ack::total            1                      
system.ruby.L1Cache_Controller.S_IL0.L0_Invalidate_Own |           5      0.00%      0.00% |      126618     18.23%     18.23% |        2376      0.34%     18.58% |      126626     18.23%     36.81% |        3690      0.53%     37.34% |      126553     18.22%     55.56% |       55686      8.02%     63.58% |      126402     18.20%     81.78% |      126515     18.22%    100.00%
system.ruby.L1Cache_Controller.S_IL0.L0_Invalidate_Own::total       694471                      
system.ruby.L1Cache_Controller.S_IL0.L0_Invalidate_Else |           3      2.56%      2.56% |          13     11.11%     13.68% |          11      9.40%     23.08% |          19     16.24%     39.32% |          13     11.11%     50.43% |          21     17.95%     68.38% |          10      8.55%     76.92% |          13     11.11%     88.03% |          14     11.97%    100.00%
system.ruby.L1Cache_Controller.S_IL0.L0_Invalidate_Else::total          117                      
system.ruby.L1Cache_Controller.S_IL0.L0_Ack |           8      0.00%      0.00% |      126631     18.23%     18.23% |        2387      0.34%     18.58% |      126645     18.23%     36.81% |        3703      0.53%     37.34% |      126574     18.22%     55.57% |       55696      8.02%     63.58% |      126415     18.20%     81.78% |      126529     18.22%    100.00%
system.ruby.L1Cache_Controller.S_IL0.L0_Ack::total       694588                      
system.ruby.L1Cache_Controller.E_IL0.WriteBack |           0      0.00%      0.00% |           0      0.00%      0.00% |           0      0.00%      0.00% |           0      0.00%      0.00% |           0      0.00%      0.00% |           0      0.00%      0.00% |          11    100.00%    100.00% |           0      0.00%    100.00% |           0      0.00%    100.00%
system.ruby.L1Cache_Controller.E_IL0.WriteBack::total           11                      
system.ruby.L1Cache_Controller.E_IL0.L0_DataAck |         838     69.14%     69.14% |          49      4.04%     73.18% |          47      3.88%     77.06% |          44      3.63%     80.69% |          47      3.88%     84.57% |          49      4.04%     88.61% |          48      3.96%     92.57% |          46      3.80%     96.37% |          44      3.63%    100.00%
system.ruby.L1Cache_Controller.E_IL0.L0_DataAck::total         1212                      
system.ruby.L1Cache_Controller.E_IL0.L0_Invalidate_Own |        5777     24.52%     24.52% |        2058      8.73%     33.25% |        3491     14.82%     48.07% |        1961      8.32%     56.39% |        2110      8.95%     65.34% |        2048      8.69%     74.04% |        2093      8.88%     82.92% |        2010      8.53%     91.45% |        2015      8.55%    100.00%
system.ruby.L1Cache_Controller.E_IL0.L0_Invalidate_Own::total        23563                      
system.ruby.L1Cache_Controller.E_IL0.L0_Invalidate_Else |          21      0.23%      0.23% |          42      0.45%      0.68% |        1698     18.36%     19.04% |          16      0.17%     19.21% |         823      8.90%     28.11% |          23      0.25%     28.36% |        6176     66.77%     95.13% |           5      0.05%     95.19% |         445      4.81%    100.00%
system.ruby.L1Cache_Controller.E_IL0.L0_Invalidate_Else::total         9249                      
system.ruby.L1Cache_Controller.E_IL0.L0_Ack |        4960     15.70%     15.70% |        2051      6.49%     22.19% |        5142     16.28%     38.47% |        1933      6.12%     44.59% |        2886      9.14%     53.73% |        2022      6.40%     60.13% |        8210     25.99%     86.12% |        1969      6.23%     92.35% |        2416      7.65%    100.00%
system.ruby.L1Cache_Controller.E_IL0.L0_Ack::total        31589                      
system.ruby.L1Cache_Controller.M_IL0.L0_DataAck |        1871     94.16%     94.16% |          13      0.65%     94.82% |           9      0.45%     95.27% |          23      1.16%     96.43% |           7      0.35%     96.78% |          14      0.70%     97.48% |          12      0.60%     98.09% |          18      0.91%     98.99% |          20      1.01%    100.00%
system.ruby.L1Cache_Controller.M_IL0.L0_DataAck::total         1987                      
system.ruby.L1Cache_Controller.M_IL0.L0_Invalidate_Own |         880     90.91%     90.91% |           3      0.31%     91.22% |           4      0.41%     91.63% |          18      1.86%     93.49% |           1      0.10%     93.60% |           1      0.10%     93.70% |           5      0.52%     94.21% |          50      5.17%     99.38% |           6      0.62%    100.00%
system.ruby.L1Cache_Controller.M_IL0.L0_Invalidate_Own::total          968                      
system.ruby.L1Cache_Controller.M_IL0.L0_Invalidate_Else |        1007     36.50%     36.50% |          14      0.51%     37.01% |         292     10.58%     47.59% |          55      1.99%     49.58% |          34      1.23%     50.82% |        1293     46.86%     97.68% |          12      0.43%     98.12% |          32      1.16%     99.28% |          20      0.72%    100.00%
system.ruby.L1Cache_Controller.M_IL0.L0_Invalidate_Else::total         2759                      
system.ruby.L1Cache_Controller.M_IL0.L0_Ack |          16      0.92%      0.92% |           4      0.23%      1.15% |         287     16.49%     17.64% |          50      2.87%     20.52% |          28      1.61%     22.13% |        1280     73.56%     95.69% |           5      0.29%     95.98% |          64      3.68%     99.66% |           6      0.34%    100.00%
system.ruby.L1Cache_Controller.M_IL0.L0_Ack::total         1740                      
system.ruby.L1Cache_Controller.MM_IL0.Fwd_GETS |           0      0.00%      0.00% |           0      0.00%      0.00% |           0      0.00%      0.00% |           0      0.00%      0.00% |           0      0.00%      0.00% |           0      0.00%      0.00% |          11    100.00%    100.00% |           0      0.00%    100.00% |           0      0.00%    100.00%
system.ruby.L1Cache_Controller.MM_IL0.Fwd_GETS::total           11                      
system.ruby.L1Cache_Controller.MM_IL0.L0_Ack |           0      0.00%      0.00% |           0      0.00%      0.00% |           0      0.00%      0.00% |           0      0.00%      0.00% |           0      0.00%      0.00% |           0      0.00%      0.00% |          11    100.00%    100.00% |           0      0.00%    100.00% |           0      0.00%    100.00%
system.ruby.L1Cache_Controller.MM_IL0.L0_Ack::total           11                      
system.ruby.L2Cache_Controller.L1_GETS        2996054      0.00%      0.00%
system.ruby.L2Cache_Controller.L1_GETX        2298506      0.00%      0.00%
system.ruby.L2Cache_Controller.L1_UPGRADE           87      0.00%      0.00%
system.ruby.L2Cache_Controller.L1_PUTX        4341024      0.00%      0.00%
system.ruby.L2Cache_Controller.L2_Replacement       827191      0.00%      0.00%
system.ruby.L2Cache_Controller.L2_Replacement_clean        89860      0.00%      0.00%
system.ruby.L2Cache_Controller.Mem_Data       1572411      0.00%      0.00%
system.ruby.L2Cache_Controller.Mem_Ack         917051      0.00%      0.00%
system.ruby.L2Cache_Controller.WB_Data          19086      0.00%      0.00%
system.ruby.L2Cache_Controller.WB_Data_clean       166302      0.00%      0.00%
system.ruby.L2Cache_Controller.Ack                412      0.00%      0.00%
system.ruby.L2Cache_Controller.Ack_all           1396      0.00%      0.00%
system.ruby.L2Cache_Controller.Unblock         132687      0.00%      0.00%
system.ruby.L2Cache_Controller.Exclusive_Unblock      4529811      0.00%      0.00%
system.ruby.L2Cache_Controller.NP.L1_GETS       202884      0.00%      0.00%
system.ruby.L2Cache_Controller.NP.L1_GETX      1369527      0.00%      0.00%
system.ruby.L2Cache_Controller.SS.L1_GETS       624135      0.00%      0.00%
system.ruby.L2Cache_Controller.SS.L1_GETX            1      0.00%      0.00%
system.ruby.L2Cache_Controller.SS.L1_UPGRADE           87      0.00%      0.00%
system.ruby.L2Cache_Controller.SS.L1_PUTX            1      0.00%      0.00%
system.ruby.L2Cache_Controller.SS.L2_Replacement           20      0.00%      0.00%
system.ruby.L2Cache_Controller.SS.L2_Replacement_clean           60      0.00%      0.00%
system.ruby.L2Cache_Controller.M.L1_GETS      2028358      0.00%      0.00%
system.ruby.L2Cache_Controller.M.L1_GETX       928941      0.00%      0.00%
system.ruby.L2Cache_Controller.M.L2_Replacement       827109      0.00%      0.00%
system.ruby.L2Cache_Controller.M.L2_Replacement_clean        35845      0.00%      0.00%
system.ruby.L2Cache_Controller.MT.L1_GETS       132687      0.00%      0.00%
system.ruby.L2Cache_Controller.MT.L1_GETX           31      0.00%      0.00%
system.ruby.L2Cache_Controller.MT.L1_PUTX      4341022      0.00%      0.00%
system.ruby.L2Cache_Controller.MT.L2_Replacement           62      0.00%      0.00%
system.ruby.L2Cache_Controller.MT.L2_Replacement_clean        53955      0.00%      0.00%
system.ruby.L2Cache_Controller.M_I.L1_GETS            3      0.00%      0.00%
system.ruby.L2Cache_Controller.M_I.Mem_Ack       917051      0.00%      0.00%
system.ruby.L2Cache_Controller.MT_I.WB_Data            8      0.00%      0.00%
system.ruby.L2Cache_Controller.MT_I.Ack_all           54      0.00%      0.00%
system.ruby.L2Cache_Controller.MCT_I.WB_Data         3386      0.00%      0.00%
system.ruby.L2Cache_Controller.MCT_I.WB_Data_clean        49307      0.00%      0.00%
system.ruby.L2Cache_Controller.MCT_I.Ack_all         1262      0.00%      0.00%
system.ruby.L2Cache_Controller.I_I.Ack            328      0.00%      0.00%
system.ruby.L2Cache_Controller.I_I.Ack_all           60      0.00%      0.00%
system.ruby.L2Cache_Controller.S_I.Ack             84      0.00%      0.00%
system.ruby.L2Cache_Controller.S_I.Ack_all           20      0.00%      0.00%
system.ruby.L2Cache_Controller.ISS.L1_GETS           18      0.00%      0.00%
system.ruby.L2Cache_Controller.ISS.Mem_Data       202866      0.00%      0.00%
system.ruby.L2Cache_Controller.IS.L1_GETS           25      0.00%      0.00%
system.ruby.L2Cache_Controller.IS.Mem_Data           18      0.00%      0.00%
system.ruby.L2Cache_Controller.IM.L1_GETX            3      0.00%      0.00%
system.ruby.L2Cache_Controller.IM.Mem_Data      1369527      0.00%      0.00%
system.ruby.L2Cache_Controller.SS_MB.Exclusive_Unblock           88      0.00%      0.00%
system.ruby.L2Cache_Controller.MT_MB.L1_GETS            2      0.00%      0.00%
system.ruby.L2Cache_Controller.MT_MB.L1_GETX            3      0.00%      0.00%
system.ruby.L2Cache_Controller.MT_MB.Exclusive_Unblock      4529723      0.00%      0.00%
system.ruby.L2Cache_Controller.MT_IIB.L1_GETS         7942      0.00%      0.00%
system.ruby.L2Cache_Controller.MT_IIB.L1_PUTX            1      0.00%      0.00%
system.ruby.L2Cache_Controller.MT_IIB.WB_Data        15627      0.00%      0.00%
system.ruby.L2Cache_Controller.MT_IIB.WB_Data_clean       116770      0.00%      0.00%
system.ruby.L2Cache_Controller.MT_IIB.Unblock          290      0.00%      0.00%
system.ruby.L2Cache_Controller.MT_IB.WB_Data           65      0.00%      0.00%
system.ruby.L2Cache_Controller.MT_IB.WB_Data_clean          225      0.00%      0.00%
system.ruby.L2Cache_Controller.MT_SB.Unblock       132397      0.00%      0.00%

---------- End Simulation Statistics   ----------
