
---------- Begin Simulation Statistics ----------
sim_seconds                                  0.780764                       # Number of seconds simulated
sim_ticks                                780763867500                       # Number of ticks simulated
final_tick                               780763867500                       # Number of ticks from beginning of simulation (restored from checkpoints and never reset)
sim_freq                                 1000000000000                       # Frequency of simulated ticks
host_inst_rate                                 134728                       # Simulator instruction rate (inst/s)
host_op_rate                                   374519                       # Simulator op (including micro ops) rate (op/s)
host_tick_rate                              228772586                       # Simulator tick rate (ticks/s)
host_mem_usage                                 962324                       # Number of bytes of host memory used
host_seconds                                  3412.84                       # Real time elapsed on the host
sim_insts                                   459803624                       # Number of instructions simulated
sim_ops                                    1278173346                       # Number of ops (including micro ops) simulated
system.voltage_domain.voltage                       1                       # Voltage in Volts
system.clk_domain.clock                          1000                       # Clock period in ticks
system.mem_ctrls.bytes_read::ruby.dir_cntrl0     28545984                       # Number of bytes read from this memory
system.mem_ctrls.bytes_read::total           28545984                       # Number of bytes read from this memory
system.mem_ctrls.bytes_written::ruby.dir_cntrl0       756032                       # Number of bytes written to this memory
system.mem_ctrls.bytes_written::total          756032                       # Number of bytes written to this memory
system.mem_ctrls.num_reads::ruby.dir_cntrl0       446031                       # Number of read requests responded to by this memory
system.mem_ctrls.num_reads::total              446031                       # Number of read requests responded to by this memory
system.mem_ctrls.num_writes::ruby.dir_cntrl0        11813                       # Number of write requests responded to by this memory
system.mem_ctrls.num_writes::total              11813                       # Number of write requests responded to by this memory
system.mem_ctrls.bw_read::ruby.dir_cntrl0     36561610                       # Total read bandwidth from this memory (bytes/s)
system.mem_ctrls.bw_read::total              36561610                       # Total read bandwidth from this memory (bytes/s)
system.mem_ctrls.bw_write::ruby.dir_cntrl0       968323                       # Write bandwidth from this memory (bytes/s)
system.mem_ctrls.bw_write::total               968323                       # Write bandwidth from this memory (bytes/s)
system.mem_ctrls.bw_total::ruby.dir_cntrl0     37529933                       # Total bandwidth to/from this memory (bytes/s)
system.mem_ctrls.bw_total::total             37529933                       # Total bandwidth to/from this memory (bytes/s)
system.mem_ctrls.readReqs                      446031                       # Number of read requests accepted
system.mem_ctrls.writeReqs                      11813                       # Number of write requests accepted
system.mem_ctrls.readBursts                    446031                       # Number of DRAM read bursts, including those serviced by the write queue
system.mem_ctrls.writeBursts                    11813                       # Number of DRAM write bursts, including those merged in the write queue
system.mem_ctrls.bytesReadDRAM               28545472                       # Total number of bytes read from DRAM
system.mem_ctrls.bytesReadWrQ                     512                       # Total number of bytes read from write queue
system.mem_ctrls.bytesWritten                  754240                       # Total number of bytes written to DRAM
system.mem_ctrls.bytesReadSys                28545984                       # Total read bytes from the system interface side
system.mem_ctrls.bytesWrittenSys               756032                       # Total written bytes from the system interface side
system.mem_ctrls.servicedByWrQ                      8                       # Number of DRAM read bursts serviced by the write queue
system.mem_ctrls.mergedWrBursts                     0                       # Number of DRAM write bursts merged with an existing one
system.mem_ctrls.neitherReadNorWriteReqs            0                       # Number of requests that are neither read nor write
system.mem_ctrls.perBankRdBursts::0             27738                       # Per bank write bursts
system.mem_ctrls.perBankRdBursts::1             27856                       # Per bank write bursts
system.mem_ctrls.perBankRdBursts::2             27713                       # Per bank write bursts
system.mem_ctrls.perBankRdBursts::3             27644                       # Per bank write bursts
system.mem_ctrls.perBankRdBursts::4             27779                       # Per bank write bursts
system.mem_ctrls.perBankRdBursts::5             27568                       # Per bank write bursts
system.mem_ctrls.perBankRdBursts::6             27930                       # Per bank write bursts
system.mem_ctrls.perBankRdBursts::7             27941                       # Per bank write bursts
system.mem_ctrls.perBankRdBursts::8             27867                       # Per bank write bursts
system.mem_ctrls.perBankRdBursts::9             28136                       # Per bank write bursts
system.mem_ctrls.perBankRdBursts::10            28098                       # Per bank write bursts
system.mem_ctrls.perBankRdBursts::11            28217                       # Per bank write bursts
system.mem_ctrls.perBankRdBursts::12            28032                       # Per bank write bursts
system.mem_ctrls.perBankRdBursts::13            28002                       # Per bank write bursts
system.mem_ctrls.perBankRdBursts::14            27774                       # Per bank write bursts
system.mem_ctrls.perBankRdBursts::15            27728                       # Per bank write bursts
system.mem_ctrls.perBankWrBursts::0               607                       # Per bank write bursts
system.mem_ctrls.perBankWrBursts::1               873                       # Per bank write bursts
system.mem_ctrls.perBankWrBursts::2               652                       # Per bank write bursts
system.mem_ctrls.perBankWrBursts::3               672                       # Per bank write bursts
system.mem_ctrls.perBankWrBursts::4               664                       # Per bank write bursts
system.mem_ctrls.perBankWrBursts::5               509                       # Per bank write bursts
system.mem_ctrls.perBankWrBursts::6               778                       # Per bank write bursts
system.mem_ctrls.perBankWrBursts::7               794                       # Per bank write bursts
system.mem_ctrls.perBankWrBursts::8               750                       # Per bank write bursts
system.mem_ctrls.perBankWrBursts::9               869                       # Per bank write bursts
system.mem_ctrls.perBankWrBursts::10              783                       # Per bank write bursts
system.mem_ctrls.perBankWrBursts::11              879                       # Per bank write bursts
system.mem_ctrls.perBankWrBursts::12              787                       # Per bank write bursts
system.mem_ctrls.perBankWrBursts::13              759                       # Per bank write bursts
system.mem_ctrls.perBankWrBursts::14              691                       # Per bank write bursts
system.mem_ctrls.perBankWrBursts::15              718                       # Per bank write bursts
system.mem_ctrls.numRdRetry                         0                       # Number of times read queue was full causing retry
system.mem_ctrls.numWrRetry                         0                       # Number of times write queue was full causing retry
system.mem_ctrls.totGap                  780763787000                       # Total gap between requests
system.mem_ctrls.readPktSize::0                     0                       # Read request sizes (log2)
system.mem_ctrls.readPktSize::1                     0                       # Read request sizes (log2)
system.mem_ctrls.readPktSize::2                     0                       # Read request sizes (log2)
system.mem_ctrls.readPktSize::3                     0                       # Read request sizes (log2)
system.mem_ctrls.readPktSize::4                     0                       # Read request sizes (log2)
system.mem_ctrls.readPktSize::5                     0                       # Read request sizes (log2)
system.mem_ctrls.readPktSize::6                446031                       # Read request sizes (log2)
system.mem_ctrls.writePktSize::0                    0                       # Write request sizes (log2)
system.mem_ctrls.writePktSize::1                    0                       # Write request sizes (log2)
system.mem_ctrls.writePktSize::2                    0                       # Write request sizes (log2)
system.mem_ctrls.writePktSize::3                    0                       # Write request sizes (log2)
system.mem_ctrls.writePktSize::4                    0                       # Write request sizes (log2)
system.mem_ctrls.writePktSize::5                    0                       # Write request sizes (log2)
system.mem_ctrls.writePktSize::6                11813                       # Write request sizes (log2)
system.mem_ctrls.rdQLenPdf::0                  445981                       # What read queue length does an incoming req see
system.mem_ctrls.rdQLenPdf::1                      42                       # What read queue length does an incoming req see
system.mem_ctrls.rdQLenPdf::2                       0                       # What read queue length does an incoming req see
system.mem_ctrls.rdQLenPdf::3                       0                       # What read queue length does an incoming req see
system.mem_ctrls.rdQLenPdf::4                       0                       # What read queue length does an incoming req see
system.mem_ctrls.rdQLenPdf::5                       0                       # What read queue length does an incoming req see
system.mem_ctrls.rdQLenPdf::6                       0                       # What read queue length does an incoming req see
system.mem_ctrls.rdQLenPdf::7                       0                       # What read queue length does an incoming req see
system.mem_ctrls.rdQLenPdf::8                       0                       # What read queue length does an incoming req see
system.mem_ctrls.rdQLenPdf::9                       0                       # What read queue length does an incoming req see
system.mem_ctrls.rdQLenPdf::10                      0                       # What read queue length does an incoming req see
system.mem_ctrls.rdQLenPdf::11                      0                       # What read queue length does an incoming req see
system.mem_ctrls.rdQLenPdf::12                      0                       # What read queue length does an incoming req see
system.mem_ctrls.rdQLenPdf::13                      0                       # What read queue length does an incoming req see
system.mem_ctrls.rdQLenPdf::14                      0                       # What read queue length does an incoming req see
system.mem_ctrls.rdQLenPdf::15                      0                       # What read queue length does an incoming req see
system.mem_ctrls.rdQLenPdf::16                      0                       # What read queue length does an incoming req see
system.mem_ctrls.rdQLenPdf::17                      0                       # What read queue length does an incoming req see
system.mem_ctrls.rdQLenPdf::18                      0                       # What read queue length does an incoming req see
system.mem_ctrls.rdQLenPdf::19                      0                       # What read queue length does an incoming req see
system.mem_ctrls.rdQLenPdf::20                      0                       # What read queue length does an incoming req see
system.mem_ctrls.rdQLenPdf::21                      0                       # What read queue length does an incoming req see
system.mem_ctrls.rdQLenPdf::22                      0                       # What read queue length does an incoming req see
system.mem_ctrls.rdQLenPdf::23                      0                       # What read queue length does an incoming req see
system.mem_ctrls.rdQLenPdf::24                      0                       # What read queue length does an incoming req see
system.mem_ctrls.rdQLenPdf::25                      0                       # What read queue length does an incoming req see
system.mem_ctrls.rdQLenPdf::26                      0                       # What read queue length does an incoming req see
system.mem_ctrls.rdQLenPdf::27                      0                       # What read queue length does an incoming req see
system.mem_ctrls.rdQLenPdf::28                      0                       # What read queue length does an incoming req see
system.mem_ctrls.rdQLenPdf::29                      0                       # What read queue length does an incoming req see
system.mem_ctrls.rdQLenPdf::30                      0                       # What read queue length does an incoming req see
system.mem_ctrls.rdQLenPdf::31                      0                       # What read queue length does an incoming req see
system.mem_ctrls.wrQLenPdf::0                       1                       # What write queue length does an incoming req see
system.mem_ctrls.wrQLenPdf::1                       1                       # What write queue length does an incoming req see
system.mem_ctrls.wrQLenPdf::2                       1                       # What write queue length does an incoming req see
system.mem_ctrls.wrQLenPdf::3                       1                       # What write queue length does an incoming req see
system.mem_ctrls.wrQLenPdf::4                       1                       # What write queue length does an incoming req see
system.mem_ctrls.wrQLenPdf::5                       1                       # What write queue length does an incoming req see
system.mem_ctrls.wrQLenPdf::6                       1                       # What write queue length does an incoming req see
system.mem_ctrls.wrQLenPdf::7                       1                       # What write queue length does an incoming req see
system.mem_ctrls.wrQLenPdf::8                       1                       # What write queue length does an incoming req see
system.mem_ctrls.wrQLenPdf::9                       1                       # What write queue length does an incoming req see
system.mem_ctrls.wrQLenPdf::10                      1                       # What write queue length does an incoming req see
system.mem_ctrls.wrQLenPdf::11                      1                       # What write queue length does an incoming req see
system.mem_ctrls.wrQLenPdf::12                      1                       # What write queue length does an incoming req see
system.mem_ctrls.wrQLenPdf::13                      1                       # What write queue length does an incoming req see
system.mem_ctrls.wrQLenPdf::14                      1                       # What write queue length does an incoming req see
system.mem_ctrls.wrQLenPdf::15                     69                       # What write queue length does an incoming req see
system.mem_ctrls.wrQLenPdf::16                     69                       # What write queue length does an incoming req see
system.mem_ctrls.wrQLenPdf::17                    724                       # What write queue length does an incoming req see
system.mem_ctrls.wrQLenPdf::18                    730                       # What write queue length does an incoming req see
system.mem_ctrls.wrQLenPdf::19                    731                       # What write queue length does an incoming req see
system.mem_ctrls.wrQLenPdf::20                    730                       # What write queue length does an incoming req see
system.mem_ctrls.wrQLenPdf::21                    731                       # What write queue length does an incoming req see
system.mem_ctrls.wrQLenPdf::22                    729                       # What write queue length does an incoming req see
system.mem_ctrls.wrQLenPdf::23                    729                       # What write queue length does an incoming req see
system.mem_ctrls.wrQLenPdf::24                    729                       # What write queue length does an incoming req see
system.mem_ctrls.wrQLenPdf::25                    729                       # What write queue length does an incoming req see
system.mem_ctrls.wrQLenPdf::26                    729                       # What write queue length does an incoming req see
system.mem_ctrls.wrQLenPdf::27                    729                       # What write queue length does an incoming req see
system.mem_ctrls.wrQLenPdf::28                    728                       # What write queue length does an incoming req see
system.mem_ctrls.wrQLenPdf::29                    728                       # What write queue length does an incoming req see
system.mem_ctrls.wrQLenPdf::30                    728                       # What write queue length does an incoming req see
system.mem_ctrls.wrQLenPdf::31                    728                       # What write queue length does an incoming req see
system.mem_ctrls.wrQLenPdf::32                    728                       # What write queue length does an incoming req see
system.mem_ctrls.wrQLenPdf::33                      0                       # What write queue length does an incoming req see
system.mem_ctrls.wrQLenPdf::34                      0                       # What write queue length does an incoming req see
system.mem_ctrls.wrQLenPdf::35                      0                       # What write queue length does an incoming req see
system.mem_ctrls.wrQLenPdf::36                      0                       # What write queue length does an incoming req see
system.mem_ctrls.wrQLenPdf::37                      0                       # What write queue length does an incoming req see
system.mem_ctrls.wrQLenPdf::38                      0                       # What write queue length does an incoming req see
system.mem_ctrls.wrQLenPdf::39                      0                       # What write queue length does an incoming req see
system.mem_ctrls.wrQLenPdf::40                      0                       # What write queue length does an incoming req see
system.mem_ctrls.wrQLenPdf::41                      0                       # What write queue length does an incoming req see
system.mem_ctrls.wrQLenPdf::42                      0                       # What write queue length does an incoming req see
system.mem_ctrls.wrQLenPdf::43                      0                       # What write queue length does an incoming req see
system.mem_ctrls.wrQLenPdf::44                      0                       # What write queue length does an incoming req see
system.mem_ctrls.wrQLenPdf::45                      0                       # What write queue length does an incoming req see
system.mem_ctrls.wrQLenPdf::46                      0                       # What write queue length does an incoming req see
system.mem_ctrls.wrQLenPdf::47                      0                       # What write queue length does an incoming req see
system.mem_ctrls.wrQLenPdf::48                      0                       # What write queue length does an incoming req see
system.mem_ctrls.wrQLenPdf::49                      0                       # What write queue length does an incoming req see
system.mem_ctrls.wrQLenPdf::50                      0                       # What write queue length does an incoming req see
system.mem_ctrls.wrQLenPdf::51                      0                       # What write queue length does an incoming req see
system.mem_ctrls.wrQLenPdf::52                      0                       # What write queue length does an incoming req see
system.mem_ctrls.wrQLenPdf::53                      0                       # What write queue length does an incoming req see
system.mem_ctrls.wrQLenPdf::54                      0                       # What write queue length does an incoming req see
system.mem_ctrls.wrQLenPdf::55                      0                       # What write queue length does an incoming req see
system.mem_ctrls.wrQLenPdf::56                      0                       # What write queue length does an incoming req see
system.mem_ctrls.wrQLenPdf::57                      0                       # What write queue length does an incoming req see
system.mem_ctrls.wrQLenPdf::58                      0                       # What write queue length does an incoming req see
system.mem_ctrls.wrQLenPdf::59                      0                       # What write queue length does an incoming req see
system.mem_ctrls.wrQLenPdf::60                      0                       # What write queue length does an incoming req see
system.mem_ctrls.wrQLenPdf::61                      0                       # What write queue length does an incoming req see
system.mem_ctrls.wrQLenPdf::62                      0                       # What write queue length does an incoming req see
system.mem_ctrls.wrQLenPdf::63                      0                       # What write queue length does an incoming req see
system.mem_ctrls.bytesPerActivate::samples        79238                       # Bytes accessed per row activation
system.mem_ctrls.bytesPerActivate::mean    369.736137                       # Bytes accessed per row activation
system.mem_ctrls.bytesPerActivate::gmean   300.964258                       # Bytes accessed per row activation
system.mem_ctrls.bytesPerActivate::stdev   235.894682                       # Bytes accessed per row activation
system.mem_ctrls.bytesPerActivate::0-127         6721      8.48%      8.48% # Bytes accessed per row activation
system.mem_ctrls.bytesPerActivate::128-255         5496      6.94%     15.42% # Bytes accessed per row activation
system.mem_ctrls.bytesPerActivate::256-383        41572     52.46%     67.88% # Bytes accessed per row activation
system.mem_ctrls.bytesPerActivate::384-511         5582      7.04%     74.93% # Bytes accessed per row activation
system.mem_ctrls.bytesPerActivate::512-639         6037      7.62%     82.55% # Bytes accessed per row activation
system.mem_ctrls.bytesPerActivate::640-767         5167      6.52%     89.07% # Bytes accessed per row activation
system.mem_ctrls.bytesPerActivate::768-895         4100      5.17%     94.24% # Bytes accessed per row activation
system.mem_ctrls.bytesPerActivate::896-1023         2675      3.38%     97.62% # Bytes accessed per row activation
system.mem_ctrls.bytesPerActivate::1024-1151         1888      2.38%    100.00% # Bytes accessed per row activation
system.mem_ctrls.bytesPerActivate::total        79238                       # Bytes accessed per row activation
system.mem_ctrls.rdPerTurnAround::samples          728                       # Reads before turning the bus around for writes
system.mem_ctrls.rdPerTurnAround::mean     612.601648                       # Reads before turning the bus around for writes
system.mem_ctrls.rdPerTurnAround::gmean     80.872958                       # Reads before turning the bus around for writes
system.mem_ctrls.rdPerTurnAround::stdev  12411.788455                       # Reads before turning the bus around for writes
system.mem_ctrls.rdPerTurnAround::0-16383          727     99.86%     99.86% # Reads before turning the bus around for writes
system.mem_ctrls.rdPerTurnAround::327680-344063            1      0.14%    100.00% # Reads before turning the bus around for writes
system.mem_ctrls.rdPerTurnAround::total           728                       # Reads before turning the bus around for writes
system.mem_ctrls.wrPerTurnAround::samples          728                       # Writes before turning the bus around for reads
system.mem_ctrls.wrPerTurnAround::mean      16.188187                       # Writes before turning the bus around for reads
system.mem_ctrls.wrPerTurnAround::gmean     16.178346                       # Writes before turning the bus around for reads
system.mem_ctrls.wrPerTurnAround::stdev      0.583140                       # Writes before turning the bus around for reads
system.mem_ctrls.wrPerTurnAround::16              659     90.52%     90.52% # Writes before turning the bus around for reads
system.mem_ctrls.wrPerTurnAround::17                1      0.14%     90.66% # Writes before turning the bus around for reads
system.mem_ctrls.wrPerTurnAround::18               68      9.34%    100.00% # Writes before turning the bus around for reads
system.mem_ctrls.wrPerTurnAround::total           728                       # Writes before turning the bus around for reads
system.mem_ctrls.totQLat                   3772781997                       # Total ticks spent queuing
system.mem_ctrls.totMemAccLat             12135713247                       # Total ticks spent from burst creation until serviced by the DRAM
system.mem_ctrls.totBusLat                 2230115000                       # Total ticks spent in databus transfers
system.mem_ctrls.avgQLat                      8458.72                       # Average queueing delay per DRAM burst
system.mem_ctrls.avgBusLat                    5000.00                       # Average bus latency per DRAM burst
system.mem_ctrls.avgMemAccLat                27208.72                       # Average memory access latency per DRAM burst
system.mem_ctrls.avgRdBW                        36.56                       # Average DRAM read bandwidth in MiByte/s
system.mem_ctrls.avgWrBW                         0.97                       # Average achieved write bandwidth in MiByte/s
system.mem_ctrls.avgRdBWSys                     36.56                       # Average system read bandwidth in MiByte/s
system.mem_ctrls.avgWrBWSys                      0.97                       # Average system write bandwidth in MiByte/s
system.mem_ctrls.peakBW                      12800.00                       # Theoretical peak bandwidth in MiByte/s
system.mem_ctrls.busUtil                         0.29                       # Data bus utilization in percentage
system.mem_ctrls.busUtilRead                     0.29                       # Data bus utilization in percentage for reads
system.mem_ctrls.busUtilWrite                    0.01                       # Data bus utilization in percentage for writes
system.mem_ctrls.avgRdQLen                       1.00                       # Average read queue length when enqueuing
system.mem_ctrls.avgWrQLen                      11.22                       # Average write queue length when enqueuing
system.mem_ctrls.readRowHits                   372297                       # Number of row buffer hits during reads
system.mem_ctrls.writeRowHits                    6261                       # Number of row buffer hits during writes
system.mem_ctrls.readRowHitRate                 83.47                       # Row buffer hit rate for reads
system.mem_ctrls.writeRowHitRate                53.00                       # Row buffer hit rate for writes
system.mem_ctrls.avgGap                    1705305.27                       # Average gap between requests
system.mem_ctrls.pageHitRate                    82.68                       # Row buffer hit rate, read and write combined
system.mem_ctrls_0.actEnergy                297478440                       # Energy for activate commands per rank (pJ)
system.mem_ctrls_0.preEnergy                162314625                       # Energy for precharge commands per rank (pJ)
system.mem_ctrls_0.readEnergy              1732738800                       # Energy for read commands per rank (pJ)
system.mem_ctrls_0.writeEnergy               35866800                       # Energy for write commands per rank (pJ)
system.mem_ctrls_0.refreshEnergy          50995345440                       # Energy for refresh commands per rank (pJ)
system.mem_ctrls_0.actBackEnergy         176415078375                       # Energy for active background per rank (pJ)
system.mem_ctrls_0.preBackEnergy         313705146750                       # Energy for precharge background per rank (pJ)
system.mem_ctrls_0.totalEnergy           543343969230                       # Total energy per rank (pJ)
system.mem_ctrls_0.averagePower            695.917925                       # Core power per rank (mW)
system.mem_ctrls_0.memoryStateTime::IDLE 520966728250                       # Time in different power states
system.mem_ctrls_0.memoryStateTime::REF   26071240000                       # Time in different power states
system.mem_ctrls_0.memoryStateTime::PRE_PDN            0                       # Time in different power states
system.mem_ctrls_0.memoryStateTime::ACT  233720738000                       # Time in different power states
system.mem_ctrls_0.memoryStateTime::ACT_PDN            0                       # Time in different power states
system.mem_ctrls_1.actEnergy                301447440                       # Energy for activate commands per rank (pJ)
system.mem_ctrls_1.preEnergy                164480250                       # Energy for precharge commands per rank (pJ)
system.mem_ctrls_1.readEnergy              1745835000                       # Energy for read commands per rank (pJ)
system.mem_ctrls_1.writeEnergy               40396320                       # Energy for write commands per rank (pJ)
system.mem_ctrls_1.refreshEnergy          50995345440                       # Energy for refresh commands per rank (pJ)
system.mem_ctrls_1.actBackEnergy         177622871895                       # Energy for active background per rank (pJ)
system.mem_ctrls_1.preBackEnergy         312645678750                       # Energy for precharge background per rank (pJ)
system.mem_ctrls_1.totalEnergy           543516055095                       # Total energy per rank (pJ)
system.mem_ctrls_1.averagePower            696.138334                       # Core power per rank (mW)
system.mem_ctrls_1.memoryStateTime::IDLE 519197408500                       # Time in different power states
system.mem_ctrls_1.memoryStateTime::REF   26071240000                       # Time in different power states
system.mem_ctrls_1.memoryStateTime::PRE_PDN            0                       # Time in different power states
system.mem_ctrls_1.memoryStateTime::ACT  235490461500                       # Time in different power states
system.mem_ctrls_1.memoryStateTime::ACT_PDN            0                       # Time in different power states
system.cpu_voltage_domain.voltage                   1                       # Voltage in Volts
system.cpu_clk_domain.clock                       500                       # Clock period in ticks
system.cpu0.apic_clk_domain.clock                8000                       # Clock period in ticks
system.cpu0.workload.num_syscalls                  98                       # Number of system calls
system.cpu0.numCycles                      1561527735                       # number of cpu cycles simulated
system.cpu0.numWorkItemsStarted                     0                       # number of work items this cpu started
system.cpu0.numWorkItemsCompleted                   0                       # number of work items this cpu completed
system.cpu0.committedInsts                  430768292                       # Number of instructions committed
system.cpu0.committedOps                   1220105832                       # Number of ops (including micro ops) committed
system.cpu0.num_int_alu_accesses           1151625143                       # Number of integer alu accesses
system.cpu0.num_fp_alu_accesses              29078646                       # Number of float alu accesses
system.cpu0.num_func_calls                   40775428                       # number of times a function call or return occured
system.cpu0.num_conditional_control_insts     94821357                       # number of instructions that are conditional controls
system.cpu0.num_int_insts                  1151625143                       # number of integer instructions
system.cpu0.num_fp_insts                     29078646                       # number of float instructions
system.cpu0.num_int_register_reads         2427839622                       # number of times the integer registers were read
system.cpu0.num_int_register_writes        1144674216                       # number of times the integer registers were written
system.cpu0.num_fp_register_reads            46730726                       # number of times the floating registers were read
system.cpu0.num_fp_register_writes           22854198                       # number of times the floating registers were written
system.cpu0.num_cc_register_reads           974869673                       # number of times the CC registers were read
system.cpu0.num_cc_register_writes          365227675                       # number of times the CC registers were written
system.cpu0.num_mem_refs                    188650294                       # number of memory refs
system.cpu0.num_load_insts                  114945432                       # Number of load instructions
system.cpu0.num_store_insts                  73704862                       # Number of store instructions
system.cpu0.num_idle_cycles                  0.002000                       # Number of idle cycles
system.cpu0.num_busy_cycles              1561527734.998000                       # Number of busy cycles
system.cpu0.not_idle_fraction                1.000000                       # Percentage of non-idle cycles
system.cpu0.idle_fraction                    0.000000                       # Percentage of idle cycles
system.cpu0.Branches                        155144473                       # Number of branches fetched
system.cpu0.op_class::No_OpClass             23648492      1.94%      1.94% # Class of executed instruction
system.cpu0.op_class::IntAlu                883135576     72.38%     74.32% # Class of executed instruction
system.cpu0.op_class::IntMult                     342      0.00%     74.32% # Class of executed instruction
system.cpu0.op_class::IntDiv                101817707      8.34%     82.67% # Class of executed instruction
system.cpu0.op_class::FloatAdd               22853421      1.87%     84.54% # Class of executed instruction
system.cpu0.op_class::FloatCmp                      0      0.00%     84.54% # Class of executed instruction
system.cpu0.op_class::FloatCvt                      0      0.00%     84.54% # Class of executed instruction
system.cpu0.op_class::FloatMult                     0      0.00%     84.54% # Class of executed instruction
system.cpu0.op_class::FloatDiv                      0      0.00%     84.54% # Class of executed instruction
system.cpu0.op_class::FloatSqrt                     0      0.00%     84.54% # Class of executed instruction
system.cpu0.op_class::SimdAdd                       0      0.00%     84.54% # Class of executed instruction
system.cpu0.op_class::SimdAddAcc                    0      0.00%     84.54% # Class of executed instruction
system.cpu0.op_class::SimdAlu                       0      0.00%     84.54% # Class of executed instruction
system.cpu0.op_class::SimdCmp                       0      0.00%     84.54% # Class of executed instruction
system.cpu0.op_class::SimdCvt                       0      0.00%     84.54% # Class of executed instruction
system.cpu0.op_class::SimdMisc                      0      0.00%     84.54% # Class of executed instruction
system.cpu0.op_class::SimdMult                      0      0.00%     84.54% # Class of executed instruction
system.cpu0.op_class::SimdMultAcc                   0      0.00%     84.54% # Class of executed instruction
system.cpu0.op_class::SimdShift                     0      0.00%     84.54% # Class of executed instruction
system.cpu0.op_class::SimdShiftAcc                  0      0.00%     84.54% # Class of executed instruction
system.cpu0.op_class::SimdSqrt                      0      0.00%     84.54% # Class of executed instruction
system.cpu0.op_class::SimdFloatAdd                  0      0.00%     84.54% # Class of executed instruction
system.cpu0.op_class::SimdFloatAlu                  0      0.00%     84.54% # Class of executed instruction
system.cpu0.op_class::SimdFloatCmp                  0      0.00%     84.54% # Class of executed instruction
system.cpu0.op_class::SimdFloatCvt                  0      0.00%     84.54% # Class of executed instruction
system.cpu0.op_class::SimdFloatDiv                  0      0.00%     84.54% # Class of executed instruction
system.cpu0.op_class::SimdFloatMisc                 0      0.00%     84.54% # Class of executed instruction
system.cpu0.op_class::SimdFloatMult                 0      0.00%     84.54% # Class of executed instruction
system.cpu0.op_class::SimdFloatMultAcc              0      0.00%     84.54% # Class of executed instruction
system.cpu0.op_class::SimdFloatSqrt                 0      0.00%     84.54% # Class of executed instruction
system.cpu0.op_class::MemRead               114945432      9.42%     93.96% # Class of executed instruction
system.cpu0.op_class::MemWrite               73704862      6.04%    100.00% # Class of executed instruction
system.cpu0.op_class::IprAccess                     0      0.00%    100.00% # Class of executed instruction
system.cpu0.op_class::InstPrefetch                  0      0.00%    100.00% # Class of executed instruction
system.cpu0.op_class::total                1220105832                       # Class of executed instruction
system.cpu1.apic_clk_domain.clock                8000                       # Clock period in ticks
system.cpu1.numCycles                      1561284701                       # number of cpu cycles simulated
system.cpu1.numWorkItemsStarted                     0                       # number of work items this cpu started
system.cpu1.numWorkItemsCompleted                   0                       # number of work items this cpu completed
system.cpu1.committedInsts                   14517666                       # Number of instructions committed
system.cpu1.committedOps                     29033757                       # Number of ops (including micro ops) committed
system.cpu1.num_int_alu_accesses             21791557                       # Number of integer alu accesses
system.cpu1.num_fp_alu_accesses              14221533                       # Number of float alu accesses
system.cpu1.num_func_calls                      40491                       # number of times a function call or return occured
system.cpu1.num_conditional_control_insts      1783388                       # number of instructions that are conditional controls
system.cpu1.num_int_insts                    21791557                       # number of integer instructions
system.cpu1.num_fp_insts                     14221533                       # number of float instructions
system.cpu1.num_int_register_reads           38295436                       # number of times the integer registers were read
system.cpu1.num_int_register_writes          13006896                       # number of times the integer registers were written
system.cpu1.num_fp_register_reads            21544607                       # number of times the floating registers were read
system.cpu1.num_fp_register_writes           14201308                       # number of times the floating registers were written
system.cpu1.num_cc_register_reads            10720594                       # number of times the CC registers were read
system.cpu1.num_cc_register_writes           10714260                       # number of times the CC registers were written
system.cpu1.num_mem_refs                      7083855                       # number of memory refs
system.cpu1.num_load_insts                    7043298                       # Number of load instructions
system.cpu1.num_store_insts                     40557                       # Number of store instructions
system.cpu1.num_idle_cycles              1500409491.007737                       # Number of idle cycles
system.cpu1.num_busy_cycles              60875209.992263                       # Number of busy cycles
system.cpu1.not_idle_fraction                0.038990                       # Percentage of non-idle cycles
system.cpu1.idle_fraction                    0.961010                       # Percentage of idle cycles
system.cpu1.Branches                          1845678                       # Number of branches fetched
system.cpu1.op_class::No_OpClass                    2      0.00%      0.00% # Class of executed instruction
system.cpu1.op_class::IntAlu                 14647016     50.45%     50.45% # Class of executed instruction
system.cpu1.op_class::IntMult                   60671      0.21%     50.66% # Class of executed instruction
system.cpu1.op_class::IntDiv                       14      0.00%     50.66% # Class of executed instruction
system.cpu1.op_class::FloatAdd                7242199     24.94%     75.60% # Class of executed instruction
system.cpu1.op_class::FloatCmp                      0      0.00%     75.60% # Class of executed instruction
system.cpu1.op_class::FloatCvt                      0      0.00%     75.60% # Class of executed instruction
system.cpu1.op_class::FloatMult                     0      0.00%     75.60% # Class of executed instruction
system.cpu1.op_class::FloatDiv                      0      0.00%     75.60% # Class of executed instruction
system.cpu1.op_class::FloatSqrt                     0      0.00%     75.60% # Class of executed instruction
system.cpu1.op_class::SimdAdd                       0      0.00%     75.60% # Class of executed instruction
system.cpu1.op_class::SimdAddAcc                    0      0.00%     75.60% # Class of executed instruction
system.cpu1.op_class::SimdAlu                       0      0.00%     75.60% # Class of executed instruction
system.cpu1.op_class::SimdCmp                       0      0.00%     75.60% # Class of executed instruction
system.cpu1.op_class::SimdCvt                       0      0.00%     75.60% # Class of executed instruction
system.cpu1.op_class::SimdMisc                      0      0.00%     75.60% # Class of executed instruction
system.cpu1.op_class::SimdMult                      0      0.00%     75.60% # Class of executed instruction
system.cpu1.op_class::SimdMultAcc                   0      0.00%     75.60% # Class of executed instruction
system.cpu1.op_class::SimdShift                     0      0.00%     75.60% # Class of executed instruction
system.cpu1.op_class::SimdShiftAcc                  0      0.00%     75.60% # Class of executed instruction
system.cpu1.op_class::SimdSqrt                      0      0.00%     75.60% # Class of executed instruction
system.cpu1.op_class::SimdFloatAdd                  0      0.00%     75.60% # Class of executed instruction
system.cpu1.op_class::SimdFloatAlu                  0      0.00%     75.60% # Class of executed instruction
system.cpu1.op_class::SimdFloatCmp                  0      0.00%     75.60% # Class of executed instruction
system.cpu1.op_class::SimdFloatCvt                  0      0.00%     75.60% # Class of executed instruction
system.cpu1.op_class::SimdFloatDiv                  0      0.00%     75.60% # Class of executed instruction
system.cpu1.op_class::SimdFloatMisc                 0      0.00%     75.60% # Class of executed instruction
system.cpu1.op_class::SimdFloatMult                 0      0.00%     75.60% # Class of executed instruction
system.cpu1.op_class::SimdFloatMultAcc              0      0.00%     75.60% # Class of executed instruction
system.cpu1.op_class::SimdFloatSqrt                 0      0.00%     75.60% # Class of executed instruction
system.cpu1.op_class::MemRead                 7043298     24.26%     99.86% # Class of executed instruction
system.cpu1.op_class::MemWrite                  40557      0.14%    100.00% # Class of executed instruction
system.cpu1.op_class::IprAccess                     0      0.00%    100.00% # Class of executed instruction
system.cpu1.op_class::InstPrefetch                  0      0.00%    100.00% # Class of executed instruction
system.cpu1.op_class::total                  29033757                       # Class of executed instruction
system.cpu2.apic_clk_domain.clock                8000                       # Clock period in ticks
system.cpu2.numCycles                      1560722004                       # number of cpu cycles simulated
system.cpu2.numWorkItemsStarted                     0                       # number of work items this cpu started
system.cpu2.numWorkItemsCompleted                   0                       # number of work items this cpu completed
system.cpu2.committedInsts                   14517666                       # Number of instructions committed
system.cpu2.committedOps                     29033757                       # Number of ops (including micro ops) committed
system.cpu2.num_int_alu_accesses             21791557                       # Number of integer alu accesses
system.cpu2.num_fp_alu_accesses              14221533                       # Number of float alu accesses
system.cpu2.num_func_calls                      40491                       # number of times a function call or return occured
system.cpu2.num_conditional_control_insts      1783388                       # number of instructions that are conditional controls
system.cpu2.num_int_insts                    21791557                       # number of integer instructions
system.cpu2.num_fp_insts                     14221533                       # number of float instructions
system.cpu2.num_int_register_reads           38295436                       # number of times the integer registers were read
system.cpu2.num_int_register_writes          13006896                       # number of times the integer registers were written
system.cpu2.num_fp_register_reads            21544607                       # number of times the floating registers were read
system.cpu2.num_fp_register_writes           14201308                       # number of times the floating registers were written
system.cpu2.num_cc_register_reads            10720594                       # number of times the CC registers were read
system.cpu2.num_cc_register_writes           10714260                       # number of times the CC registers were written
system.cpu2.num_mem_refs                      7083855                       # number of memory refs
system.cpu2.num_load_insts                    7043298                       # Number of load instructions
system.cpu2.num_store_insts                     40557                       # Number of store instructions
system.cpu2.num_idle_cycles              1500431860.106153                       # Number of idle cycles
system.cpu2.num_busy_cycles              60290143.893847                       # Number of busy cycles
system.cpu2.not_idle_fraction                0.038630                       # Percentage of non-idle cycles
system.cpu2.idle_fraction                    0.961370                       # Percentage of idle cycles
system.cpu2.Branches                          1845678                       # Number of branches fetched
system.cpu2.op_class::No_OpClass                    2      0.00%      0.00% # Class of executed instruction
system.cpu2.op_class::IntAlu                 14647016     50.45%     50.45% # Class of executed instruction
system.cpu2.op_class::IntMult                   60671      0.21%     50.66% # Class of executed instruction
system.cpu2.op_class::IntDiv                       14      0.00%     50.66% # Class of executed instruction
system.cpu2.op_class::FloatAdd                7242199     24.94%     75.60% # Class of executed instruction
system.cpu2.op_class::FloatCmp                      0      0.00%     75.60% # Class of executed instruction
system.cpu2.op_class::FloatCvt                      0      0.00%     75.60% # Class of executed instruction
system.cpu2.op_class::FloatMult                     0      0.00%     75.60% # Class of executed instruction
system.cpu2.op_class::FloatDiv                      0      0.00%     75.60% # Class of executed instruction
system.cpu2.op_class::FloatSqrt                     0      0.00%     75.60% # Class of executed instruction
system.cpu2.op_class::SimdAdd                       0      0.00%     75.60% # Class of executed instruction
system.cpu2.op_class::SimdAddAcc                    0      0.00%     75.60% # Class of executed instruction
system.cpu2.op_class::SimdAlu                       0      0.00%     75.60% # Class of executed instruction
system.cpu2.op_class::SimdCmp                       0      0.00%     75.60% # Class of executed instruction
system.cpu2.op_class::SimdCvt                       0      0.00%     75.60% # Class of executed instruction
system.cpu2.op_class::SimdMisc                      0      0.00%     75.60% # Class of executed instruction
system.cpu2.op_class::SimdMult                      0      0.00%     75.60% # Class of executed instruction
system.cpu2.op_class::SimdMultAcc                   0      0.00%     75.60% # Class of executed instruction
system.cpu2.op_class::SimdShift                     0      0.00%     75.60% # Class of executed instruction
system.cpu2.op_class::SimdShiftAcc                  0      0.00%     75.60% # Class of executed instruction
system.cpu2.op_class::SimdSqrt                      0      0.00%     75.60% # Class of executed instruction
system.cpu2.op_class::SimdFloatAdd                  0      0.00%     75.60% # Class of executed instruction
system.cpu2.op_class::SimdFloatAlu                  0      0.00%     75.60% # Class of executed instruction
system.cpu2.op_class::SimdFloatCmp                  0      0.00%     75.60% # Class of executed instruction
system.cpu2.op_class::SimdFloatCvt                  0      0.00%     75.60% # Class of executed instruction
system.cpu2.op_class::SimdFloatDiv                  0      0.00%     75.60% # Class of executed instruction
system.cpu2.op_class::SimdFloatMisc                 0      0.00%     75.60% # Class of executed instruction
system.cpu2.op_class::SimdFloatMult                 0      0.00%     75.60% # Class of executed instruction
system.cpu2.op_class::SimdFloatMultAcc              0      0.00%     75.60% # Class of executed instruction
system.cpu2.op_class::SimdFloatSqrt                 0      0.00%     75.60% # Class of executed instruction
system.cpu2.op_class::MemRead                 7043298     24.26%     99.86% # Class of executed instruction
system.cpu2.op_class::MemWrite                  40557      0.14%    100.00% # Class of executed instruction
system.cpu2.op_class::IprAccess                     0      0.00%    100.00% # Class of executed instruction
system.cpu2.op_class::InstPrefetch                  0      0.00%    100.00% # Class of executed instruction
system.cpu2.op_class::total                  29033757                       # Class of executed instruction
system.ruby.clk_domain.clock                      500                       # Clock period in ticks
system.ruby.delayHist::bucket_size                  4                       # delay histogram for all message
system.ruby.delayHist::max_bucket                  39                       # delay histogram for all message
system.ruby.delayHist::samples                8896159                       # delay histogram for all message
system.ruby.delayHist::mean                  0.590545                       # delay histogram for all message
system.ruby.delayHist::stdev                 2.107671                       # delay histogram for all message
system.ruby.delayHist                    |     8244811     92.68%     92.68% |        8499      0.10%     92.77% |      636276      7.15%     99.93% |        4779      0.05%     99.98% |        1612      0.02%    100.00% |          83      0.00%    100.00% |          98      0.00%    100.00% |           1      0.00%    100.00% |           0      0.00%    100.00% |           0      0.00%    100.00% # delay histogram for all message
system.ruby.delayHist::total                  8896159                       # delay histogram for all message
system.ruby.outstanding_req_hist::bucket_size            1                      
system.ruby.outstanding_req_hist::max_bucket            9                      
system.ruby.outstanding_req_hist::samples    800958861                      
system.ruby.outstanding_req_hist::mean       1.000184                      
system.ruby.outstanding_req_hist::gmean      1.000128                      
system.ruby.outstanding_req_hist::stdev      0.013570                      
system.ruby.outstanding_req_hist         |           0      0.00%      0.00% |   800811343     99.98%     99.98% |      147518      0.02%    100.00% |           0      0.00%    100.00% |           0      0.00%    100.00% |           0      0.00%    100.00% |           0      0.00%    100.00% |           0      0.00%    100.00% |           0      0.00%    100.00% |           0      0.00%    100.00%
system.ruby.outstanding_req_hist::total     800958861                      
system.ruby.latency_hist::bucket_size             128                      
system.ruby.latency_hist::max_bucket             1279                      
system.ruby.latency_hist::samples           800958861                      
system.ruby.latency_hist::mean               1.101175                      
system.ruby.latency_hist::gmean              1.006593                      
system.ruby.latency_hist::stdev              3.709799                      
system.ruby.latency_hist                 |   800885030     99.99%     99.99% |       59550      0.01%    100.00% |        2411      0.00%    100.00% |        2401      0.00%    100.00% |        8310      0.00%    100.00% |        1140      0.00%    100.00% |           6      0.00%    100.00% |           1      0.00%    100.00% |           8      0.00%    100.00% |           4      0.00%    100.00%
system.ruby.latency_hist::total             800958861                      
system.ruby.hit_latency_hist::bucket_size          128                      
system.ruby.hit_latency_hist::max_bucket         1279                      
system.ruby.hit_latency_hist::samples       800958861                      
system.ruby.hit_latency_hist::mean           1.101175                      
system.ruby.hit_latency_hist::gmean          1.006593                      
system.ruby.hit_latency_hist::stdev          3.709799                      
system.ruby.hit_latency_hist             |   800885030     99.99%     99.99% |       59550      0.01%    100.00% |        2411      0.00%    100.00% |        2401      0.00%    100.00% |        8310      0.00%    100.00% |        1140      0.00%    100.00% |           6      0.00%    100.00% |           1      0.00%    100.00% |           8      0.00%    100.00% |           4      0.00%    100.00%
system.ruby.hit_latency_hist::total         800958861                      
system.ruby.l0_cntrl0.Dcache.demand_hits    188076955                       # Number of cache demand hits
system.ruby.l0_cntrl0.Dcache.demand_misses       573401                       # Number of cache demand misses
system.ruby.l0_cntrl0.Dcache.demand_accesses    188650356                       # Number of cache demand accesses
system.ruby.l0_cntrl0.Icache.demand_hits    560741845                       # Number of cache demand hits
system.ruby.l0_cntrl0.Icache.demand_misses         2822                       # Number of cache demand misses
system.ruby.l0_cntrl0.Icache.demand_accesses    560744667                       # Number of cache demand accesses
system.ruby.l0_cntrl0.Zcache.demand_hits     33842018                       # Number of cache demand hits
system.ruby.l0_cntrl0.Zcache.demand_misses       439527                       # Number of cache demand misses
system.ruby.l0_cntrl0.Zcache.demand_accesses     34281545                       # Number of cache demand accesses
system.ruby.l0_cntrl1.Dcache.demand_hits      6707266                       # Number of cache demand hits
system.ruby.l0_cntrl1.Dcache.demand_misses       450317                       # Number of cache demand misses
system.ruby.l0_cntrl1.Dcache.demand_accesses      7157583                       # Number of cache demand accesses
system.ruby.l0_cntrl1.Icache.demand_hits     18623712                       # Number of cache demand hits
system.ruby.l0_cntrl1.Icache.demand_misses          624                       # Number of cache demand misses
system.ruby.l0_cntrl1.Icache.demand_accesses     18624336                       # Number of cache demand accesses
system.ruby.l0_cntrl1.Zcache.demand_hits       148009                       # Number of cache demand hits
system.ruby.l0_cntrl1.Zcache.demand_misses         3456                       # Number of cache demand misses
system.ruby.l0_cntrl1.Zcache.demand_accesses       151465                       # Number of cache demand accesses
system.ruby.l0_cntrl2.Dcache.demand_hits      6705567                       # Number of cache demand hits
system.ruby.l0_cntrl2.Dcache.demand_misses       452016                       # Number of cache demand misses
system.ruby.l0_cntrl2.Dcache.demand_accesses      7157583                       # Number of cache demand accesses
system.ruby.l0_cntrl2.Icache.demand_hits     18623771                       # Number of cache demand hits
system.ruby.l0_cntrl2.Icache.demand_misses          565                       # Number of cache demand misses
system.ruby.l0_cntrl2.Icache.demand_accesses     18624336                       # Number of cache demand accesses
system.ruby.l0_cntrl2.Zcache.demand_hits        47607                       # Number of cache demand hits
system.ruby.l0_cntrl2.Zcache.demand_misses         3240                       # Number of cache demand misses
system.ruby.l0_cntrl2.Zcache.demand_accesses        50847                       # Number of cache demand accesses
system.ruby.l1_cntrl0.cache.demand_hits           127                       # Number of cache demand hits
system.ruby.l1_cntrl0.cache.demand_misses       576096                       # Number of cache demand misses
system.ruby.l1_cntrl0.cache.demand_accesses       576223                       # Number of cache demand accesses
system.ruby.l1_cntrl0.zcache.demand_hits           18                       # Number of cache demand hits
system.ruby.l1_cntrl0.zcache.demand_misses       132240                       # Number of cache demand misses
system.ruby.l1_cntrl0.zcache.demand_accesses       132258                       # Number of cache demand accesses
system.ruby.l1_cntrl1.cache.demand_hits         37107                       # Number of cache demand hits
system.ruby.l1_cntrl1.cache.demand_misses       413834                       # Number of cache demand misses
system.ruby.l1_cntrl1.cache.demand_accesses       450941                       # Number of cache demand accesses
system.ruby.l1_cntrl1.zcache.demand_hits            0                       # Number of cache demand hits
system.ruby.l1_cntrl1.zcache.demand_misses            0                       # Number of cache demand misses
system.ruby.l1_cntrl1.zcache.demand_accesses            0                       # Number of cache demand accesses
system.ruby.l1_cntrl2.cache.demand_hits         36369                       # Number of cache demand hits
system.ruby.l1_cntrl2.cache.demand_misses       416212                       # Number of cache demand misses
system.ruby.l1_cntrl2.cache.demand_accesses       452581                       # Number of cache demand accesses
system.ruby.l1_cntrl2.zcache.demand_hits            0                       # Number of cache demand hits
system.ruby.l1_cntrl2.zcache.demand_misses            1                       # Number of cache demand misses
system.ruby.l1_cntrl2.zcache.demand_accesses            1                       # Number of cache demand accesses
system.ruby.l2_cntrl0.L2cache.demand_hits       910724                       # Number of cache demand hits
system.ruby.l2_cntrl0.L2cache.demand_misses       495418                       # Number of cache demand misses
system.ruby.l2_cntrl0.L2cache.demand_accesses      1406142                       # Number of cache demand accesses
system.ruby.l2_cntrl0.ZL2cache.demand_hits         4183                       # Number of cache demand hits
system.ruby.l2_cntrl0.ZL2cache.demand_misses       128595                       # Number of cache demand misses
system.ruby.l2_cntrl0.ZL2cache.demand_accesses       132778                       # Number of cache demand accesses
system.ruby.l2_cntrl0.fully_busy_cycles             1                       # cycles for which number of transistions == max transitions
system.ruby.memctrl_clk_domain.clock             1500                       # Clock period in ticks
system.ruby.network.routers0.percent_links_utilized            0                      
system.ruby.network.routers1.percent_links_utilized            0                      
system.ruby.network.routers2.percent_links_utilized            0                      
system.ruby.network.routers3.percent_links_utilized     0.193474                      
system.ruby.network.routers3.msg_count.Control::0       576096                      
system.ruby.network.routers3.msg_count.Request_Control::2         4132                      
system.ruby.network.routers3.msg_count.Response_Data::1       583395                      
system.ruby.network.routers3.msg_count.Response_Control::1       567704                      
system.ruby.network.routers3.msg_count.Response_Control::2       576081                      
system.ruby.network.routers3.msg_count.Writeback_Data::0       567279                      
system.ruby.network.routers3.msg_count.Writeback_Data::1          461                      
system.ruby.network.routers3.msg_count.Writeback_Control::0          357                      
system.ruby.network.routers3.msg_bytes.Control::0      4608768                      
system.ruby.network.routers3.msg_bytes.Request_Control::2        33056                      
system.ruby.network.routers3.msg_bytes.Response_Data::1     42004440                      
system.ruby.network.routers3.msg_bytes.Response_Control::1      4541632                      
system.ruby.network.routers3.msg_bytes.Response_Control::2      4608648                      
system.ruby.network.routers3.msg_bytes.Writeback_Data::0     40844088                      
system.ruby.network.routers3.msg_bytes.Writeback_Data::1        33192                      
system.ruby.network.routers3.msg_bytes.Writeback_Control::0         2856                      
system.ruby.network.routers4.percent_links_utilized     0.085152                      
system.ruby.network.routers4.msg_count.Control::0       413834                      
system.ruby.network.routers4.msg_count.Request_Control::2           61                      
system.ruby.network.routers4.msg_count.Response_Data::1       413897                      
system.ruby.network.routers4.msg_count.Response_Control::1       358615                      
system.ruby.network.routers4.msg_count.Response_Control::2       404560                      
system.ruby.network.routers4.msg_count.Writeback_Data::0         7248                      
system.ruby.network.routers4.msg_count.Writeback_Control::0       351335                      
system.ruby.network.routers4.msg_bytes.Control::0      3310672                      
system.ruby.network.routers4.msg_bytes.Request_Control::2          488                      
system.ruby.network.routers4.msg_bytes.Response_Data::1     29800584                      
system.ruby.network.routers4.msg_bytes.Response_Control::1      2868920                      
system.ruby.network.routers4.msg_bytes.Response_Control::2      3236480                      
system.ruby.network.routers4.msg_bytes.Writeback_Data::0       521856                      
system.ruby.network.routers4.msg_bytes.Writeback_Control::0      2810680                      
system.ruby.network.routers5.percent_links_utilized     0.099630                      
system.ruby.network.routers5.msg_count.Control::0       416212                      
system.ruby.network.routers5.msg_count.Request_Control::2        45710                      
system.ruby.network.routers5.msg_count.Response_Data::1       507573                      
system.ruby.network.routers5.msg_count.Response_Control::1       361239                      
system.ruby.network.routers5.msg_count.Response_Control::2       410620                      
system.ruby.network.routers5.msg_count.Writeback_Data::0         7481                      
system.ruby.network.routers5.msg_count.Writeback_Control::0       353727                      
system.ruby.network.routers5.msg_bytes.Control::0      3329696                      
system.ruby.network.routers5.msg_bytes.Request_Control::2       365680                      
system.ruby.network.routers5.msg_bytes.Response_Data::1     36545256                      
system.ruby.network.routers5.msg_bytes.Response_Control::1      2889912                      
system.ruby.network.routers5.msg_bytes.Response_Control::2      3284960                      
system.ruby.network.routers5.msg_bytes.Writeback_Data::0       538632                      
system.ruby.network.routers5.msg_bytes.Writeback_Control::0      2829816                      
system.ruby.network.routers6.percent_links_utilized     0.437332                      
system.ruby.network.routers6.msg_count.Control::0      1852173                      
system.ruby.network.routers6.msg_count.Request_Control::2        49882                      
system.ruby.network.routers6.msg_count.Response_Data::1      1863944                      
system.ruby.network.routers6.msg_count.Response_Control::1      1299765                      
system.ruby.network.routers6.msg_count.Response_Control::2      1391261                      
system.ruby.network.routers6.msg_count.Writeback_Data::0       582008                      
system.ruby.network.routers6.msg_count.Writeback_Data::1          461                      
system.ruby.network.routers6.msg_count.Writeback_Control::0       705419                      
system.ruby.network.routers6.msg_bytes.Control::0     14817384                      
system.ruby.network.routers6.msg_bytes.Request_Control::2       399056                      
system.ruby.network.routers6.msg_bytes.Response_Data::1    134203968                      
system.ruby.network.routers6.msg_bytes.Response_Control::1     10398120                      
system.ruby.network.routers6.msg_bytes.Response_Control::2     11130088                      
system.ruby.network.routers6.msg_bytes.Writeback_Data::0     41904576                      
system.ruby.network.routers6.msg_bytes.Writeback_Data::1        33192                      
system.ruby.network.routers6.msg_bytes.Writeback_Control::0      5643352                      
system.ruby.network.routers7.percent_links_utilized     0.073308                      
system.ruby.network.routers7.msg_count.Control::0       446031                      
system.ruby.network.routers7.msg_count.Response_Data::1       457844                      
system.ruby.network.routers7.msg_count.Response_Control::1        12287                      
system.ruby.network.routers7.msg_bytes.Control::0      3568248                      
system.ruby.network.routers7.msg_bytes.Response_Data::1     32964768                      
system.ruby.network.routers7.msg_bytes.Response_Control::1        98296                      
system.ruby.network.routers8.percent_links_utilized     0.111112                      
system.ruby.network.routers8.msg_count.Control::0      1852173                      
system.ruby.network.routers8.msg_count.Request_Control::2        49903                      
system.ruby.network.routers8.msg_count.Response_Data::1      1913331                      
system.ruby.network.routers8.msg_count.Response_Control::1      1299805                      
system.ruby.network.routers8.msg_count.Response_Control::2      1391261                      
system.ruby.network.routers8.msg_count.Writeback_Data::0       582008                      
system.ruby.network.routers8.msg_count.Writeback_Data::1          461                      
system.ruby.network.routers8.msg_count.Writeback_Control::0       705419                      
system.ruby.network.routers8.msg_bytes.Control::0     14817384                      
system.ruby.network.routers8.msg_bytes.Request_Control::2       399224                      
system.ruby.network.routers8.msg_bytes.Response_Data::1    137759832                      
system.ruby.network.routers8.msg_bytes.Response_Control::1     10398440                      
system.ruby.network.routers8.msg_bytes.Response_Control::2     11130088                      
system.ruby.network.routers8.msg_bytes.Writeback_Data::0     41904576                      
system.ruby.network.routers8.msg_bytes.Writeback_Data::1        33192                      
system.ruby.network.routers8.msg_bytes.Writeback_Control::0      5643352                      
system.ruby.network.msg_count.Control         5556519                      
system.ruby.network.msg_count.Request_Control       149688                      
system.ruby.network.msg_count.Response_Data      5739984                      
system.ruby.network.msg_count.Response_Control      8073198                      
system.ruby.network.msg_count.Writeback_Data      1747407                      
system.ruby.network.msg_count.Writeback_Control      2116257                      
system.ruby.network.msg_byte.Control         44452152                      
system.ruby.network.msg_byte.Request_Control      1197504                      
system.ruby.network.msg_byte.Response_Data    413278848                      
system.ruby.network.msg_byte.Response_Control     64585584                      
system.ruby.network.msg_byte.Writeback_Data    125813304                      
system.ruby.network.msg_byte.Writeback_Control     16930056                      
system.ruby.network.routers0.throttle0.link_utilization            0                      
system.ruby.network.routers0.throttle1.link_utilization            0                      
system.ruby.network.routers1.throttle0.link_utilization            0                      
system.ruby.network.routers1.throttle1.link_utilization            0                      
system.ruby.network.routers2.throttle0.link_utilization            0                      
system.ruby.network.routers2.throttle1.link_utilization            0                      
system.ruby.network.routers3.throttle0.link_utilization     0.184322                      
system.ruby.network.routers3.throttle0.msg_count.Request_Control::2         4132                      
system.ruby.network.routers3.throttle0.msg_count.Response_Data::1       576072                      
system.ruby.network.routers3.throttle0.msg_count.Response_Control::1       567695                      
system.ruby.network.routers3.throttle0.msg_bytes.Request_Control::2        33056                      
system.ruby.network.routers3.throttle0.msg_bytes.Response_Data::1     41477184                      
system.ruby.network.routers3.throttle0.msg_bytes.Response_Control::1      4541560                      
system.ruby.network.routers3.throttle1.link_utilization     0.202626                      
system.ruby.network.routers3.throttle1.msg_count.Control::0       576096                      
system.ruby.network.routers3.throttle1.msg_count.Response_Data::1         7323                      
system.ruby.network.routers3.throttle1.msg_count.Response_Control::1            9                      
system.ruby.network.routers3.throttle1.msg_count.Response_Control::2       576081                      
system.ruby.network.routers3.throttle1.msg_count.Writeback_Data::0       567279                      
system.ruby.network.routers3.throttle1.msg_count.Writeback_Data::1          461                      
system.ruby.network.routers3.throttle1.msg_count.Writeback_Control::0          357                      
system.ruby.network.routers3.throttle1.msg_bytes.Control::0      4608768                      
system.ruby.network.routers3.throttle1.msg_bytes.Response_Data::1       527256                      
system.ruby.network.routers3.throttle1.msg_bytes.Response_Control::1           72                      
system.ruby.network.routers3.throttle1.msg_bytes.Response_Control::2      4608648                      
system.ruby.network.routers3.throttle1.msg_bytes.Writeback_Data::0     40844088                      
system.ruby.network.routers3.throttle1.msg_bytes.Writeback_Data::1        33192                      
system.ruby.network.routers3.throttle1.msg_bytes.Writeback_Control::0         2856                      
system.ruby.network.routers4.throttle0.link_utilization     0.130742                      
system.ruby.network.routers4.throttle0.msg_count.Request_Control::2           61                      
system.ruby.network.routers4.throttle0.msg_count.Response_Data::1       413832                      
system.ruby.network.routers4.throttle0.msg_count.Response_Control::1       358588                      
system.ruby.network.routers4.throttle0.msg_bytes.Request_Control::2          488                      
system.ruby.network.routers4.throttle0.msg_bytes.Response_Data::1     29795904                      
system.ruby.network.routers4.throttle0.msg_bytes.Response_Control::1      2868704                      
system.ruby.network.routers4.throttle1.link_utilization     0.039563                      
system.ruby.network.routers4.throttle1.msg_count.Control::0       413834                      
system.ruby.network.routers4.throttle1.msg_count.Response_Data::1           65                      
system.ruby.network.routers4.throttle1.msg_count.Response_Control::1           27                      
system.ruby.network.routers4.throttle1.msg_count.Response_Control::2       404560                      
system.ruby.network.routers4.throttle1.msg_count.Writeback_Data::0         7248                      
system.ruby.network.routers4.throttle1.msg_count.Writeback_Control::0       351335                      
system.ruby.network.routers4.throttle1.msg_bytes.Control::0      3310672                      
system.ruby.network.routers4.throttle1.msg_bytes.Response_Data::1         4680                      
system.ruby.network.routers4.throttle1.msg_bytes.Response_Control::1          216                      
system.ruby.network.routers4.throttle1.msg_bytes.Response_Control::2      3236480                      
system.ruby.network.routers4.throttle1.msg_bytes.Writeback_Data::0       521856                      
system.ruby.network.routers4.throttle1.msg_bytes.Writeback_Control::0      2810680                      
system.ruby.network.routers5.throttle0.link_utilization     0.132973                      
system.ruby.network.routers5.throttle0.msg_count.Request_Control::2        45710                      
system.ruby.network.routers5.throttle0.msg_count.Response_Data::1       416211                      
system.ruby.network.routers5.throttle0.msg_count.Response_Control::1       361211                      
system.ruby.network.routers5.throttle0.msg_bytes.Request_Control::2       365680                      
system.ruby.network.routers5.throttle0.msg_bytes.Response_Data::1     29967192                      
system.ruby.network.routers5.throttle0.msg_bytes.Response_Control::1      2889688                      
system.ruby.network.routers5.throttle1.link_utilization     0.066287                      
system.ruby.network.routers5.throttle1.msg_count.Control::0       416212                      
system.ruby.network.routers5.throttle1.msg_count.Response_Data::1        91362                      
system.ruby.network.routers5.throttle1.msg_count.Response_Control::1           28                      
system.ruby.network.routers5.throttle1.msg_count.Response_Control::2       410620                      
system.ruby.network.routers5.throttle1.msg_count.Writeback_Data::0         7481                      
system.ruby.network.routers5.throttle1.msg_count.Writeback_Control::0       353727                      
system.ruby.network.routers5.throttle1.msg_bytes.Control::0      3329696                      
system.ruby.network.routers5.throttle1.msg_bytes.Response_Data::1      6578064                      
system.ruby.network.routers5.throttle1.msg_bytes.Response_Control::1          224                      
system.ruby.network.routers5.throttle1.msg_bytes.Response_Control::2      3284960                      
system.ruby.network.routers5.throttle1.msg_bytes.Writeback_Data::0       538632                      
system.ruby.network.routers5.throttle1.msg_bytes.Writeback_Control::0      2829816                      
system.ruby.network.routers6.throttle0.link_utilization     0.423167                      
system.ruby.network.routers6.throttle0.msg_count.Control::0      1406142                      
system.ruby.network.routers6.throttle0.msg_count.Response_Data::1       495403                      
system.ruby.network.routers6.throttle0.msg_count.Response_Control::1        12074                      
system.ruby.network.routers6.throttle0.msg_count.Response_Control::2      1391261                      
system.ruby.network.routers6.throttle0.msg_count.Writeback_Data::0       582008                      
system.ruby.network.routers6.throttle0.msg_count.Writeback_Data::1          461                      
system.ruby.network.routers6.throttle0.msg_count.Writeback_Control::0       705419                      
system.ruby.network.routers6.throttle0.msg_bytes.Control::0     11249136                      
system.ruby.network.routers6.throttle0.msg_bytes.Response_Data::1     35669016                      
system.ruby.network.routers6.throttle0.msg_bytes.Response_Control::1        96592                      
system.ruby.network.routers6.throttle0.msg_bytes.Response_Control::2     11130088                      
system.ruby.network.routers6.throttle0.msg_bytes.Writeback_Data::0     41904576                      
system.ruby.network.routers6.throttle0.msg_bytes.Writeback_Data::1        33192                      
system.ruby.network.routers6.throttle0.msg_bytes.Writeback_Control::0      5643352                      
system.ruby.network.routers6.throttle1.link_utilization     0.451496                      
system.ruby.network.routers6.throttle1.msg_count.Control::0       446031                      
system.ruby.network.routers6.throttle1.msg_count.Request_Control::2        49882                      
system.ruby.network.routers6.throttle1.msg_count.Response_Data::1      1368541                      
system.ruby.network.routers6.throttle1.msg_count.Response_Control::1      1287691                      
system.ruby.network.routers6.throttle1.msg_bytes.Control::0      3568248                      
system.ruby.network.routers6.throttle1.msg_bytes.Request_Control::2       399056                      
[...]
system.ruby.L1Cache_Controller.L0_DataAck |        3026     52.82%     52.82% |        1352     23.60%     76.42% |        1351     23.58%    100.00%
system.ruby.L1Cache_Controller.L0_DataAck::total         5729                      
system.ruby.L1Cache_Controller.Inv       |         470     89.52%     89.52% |          27      5.14%     94.67% |          28      5.33%    100.00%
system.ruby.L1Cache_Controller.Inv::total          525                      
system.ruby.L1Cache_Controller.L0_Invalidate_Own |        9462      6.07%      6.07% |      116744     74.95%     81.02% |       29558     18.98%    100.00%
system.ruby.L1Cache_Controller.L0_Invalidate_Own::total       155764                      
system.ruby.L1Cache_Controller.L0_Invalidate_Else |        1034     22.96%     22.96% |          78      1.73%     24.69% |        3392     75.31%    100.00%
system.ruby.L1Cache_Controller.L0_Invalidate_Else::total         4504                      
system.ruby.L1Cache_Controller.L1_Replacement |      568337     40.88%     40.88% |      409736     29.47%     70.36% |      412115     29.64%    100.00%
system.ruby.L1Cache_Controller.L1_Replacement::total      1390188                      
system.ruby.L1Cache_Controller.Fwd_GETX  |           1     16.67%     16.67% |           3     50.00%     66.67% |           2     33.33%    100.00%
system.ruby.L1Cache_Controller.Fwd_GETX::total            6                      
system.ruby.L1Cache_Controller.Fwd_GETS  |        3661      7.42%      7.42% |          31      0.06%      7.48% |       45680     92.52%    100.00%
system.ruby.L1Cache_Controller.Fwd_GETS::total        49372                      
system.ruby.L1Cache_Controller.Data      |           1     33.33%     33.33% |           1     33.33%     66.67% |           1     33.33%    100.00%
system.ruby.L1Cache_Controller.Data::total            3                      
system.ruby.L1Cache_Controller.Data_Exclusive |        3711      0.48%      0.48% |      357592     46.62%     47.11% |      405665     52.89%    100.00%
system.ruby.L1Cache_Controller.Data_Exclusive::total       766968                      
system.ruby.L1Cache_Controller.DataS_fromL1 |          15      0.03%      0.03% |       45683     92.53%     92.56% |        3674      7.44%    100.00%
system.ruby.L1Cache_Controller.DataS_fromL1::total        49372                      
system.ruby.L1Cache_Controller.Data_all_Acks |      572345     97.05%     97.05% |       10556      1.79%     98.83% |        6871      1.17%    100.00%
system.ruby.L1Cache_Controller.Data_all_Acks::total       589772                      
system.ruby.L1Cache_Controller.L0_Ack    |        2222      2.99%      2.99% |       57059     76.69%     79.67% |       15124     20.33%    100.00%
system.ruby.L1Cache_Controller.L0_Ack::total        74405                      
system.ruby.L1Cache_Controller.Ack       |          34     91.89%     91.89% |           2      5.41%     97.30% |           1      2.70%    100.00%
system.ruby.L1Cache_Controller.Ack::total           37                      
system.ruby.L1Cache_Controller.Ack_all   |          25     83.33%     83.33% |           3     10.00%     93.33% |           2      6.67%    100.00%
system.ruby.L1Cache_Controller.Ack_all::total           30                      
system.ruby.L1Cache_Controller.WB_Ack    |      567636     44.09%     44.09% |      358583     27.85%     71.94% |      361208     28.06%    100.00%
system.ruby.L1Cache_Controller.WB_Ack::total      1287427                      
system.ruby.L1Cache_Controller.NP.Load   |        3740      0.45%      0.45% |      412549     49.63%     50.08% |      414931     49.92%    100.00%
system.ruby.L1Cache_Controller.NP.Load::total       831220                      
system.ruby.L1Cache_Controller.NP.Store  |      572331     99.55%     99.55% |        1283      0.22%     99.78% |        1280      0.22%    100.00%
system.ruby.L1Cache_Controller.NP.Store::total       574894                      
system.ruby.L1Cache_Controller.NP.Inv    |           0      0.00%      0.00% |          15     50.00%     50.00% |          15     50.00%    100.00%
system.ruby.L1Cache_Controller.NP.Inv::total           30                      
system.ruby.L1Cache_Controller.I.Load    |           1    100.00%    100.00% |           0      0.00%    100.00% |           0      0.00%    100.00%
system.ruby.L1Cache_Controller.I.Load::total            1                      
system.ruby.L1Cache_Controller.I.L1_Replacement |           0      0.00%      0.00% |           2    100.00%    100.00% |           0      0.00%    100.00%
system.ruby.L1Cache_Controller.I.L1_Replacement::total            2                      
system.ruby.L1Cache_Controller.S.Load    |           3    100.00%    100.00% |           0      0.00%    100.00% |           0      0.00%    100.00%
system.ruby.L1Cache_Controller.S.Load::total            3                      
system.ruby.L1Cache_Controller.S.Store   |          24     88.89%     88.89% |           2      7.41%     96.30% |           1      3.70%    100.00%
system.ruby.L1Cache_Controller.S.Store::total           27                      
system.ruby.L1Cache_Controller.S.L0_Invalidate_Own |           0      0.00%      0.00% |       51140     87.49%     87.49% |        7312     12.51%    100.00%
system.ruby.L1Cache_Controller.S.L0_Invalidate_Own::total        58452                      
system.ruby.L1Cache_Controller.S.L0_Invalidate_Else |           2     12.50%     12.50% |           5     31.25%     43.75% |           9     56.25%    100.00%
system.ruby.L1Cache_Controller.S.L0_Invalidate_Else::total           16                      
system.ruby.L1Cache_Controller.SS.Load   |          11      0.65%      0.65% |          10      0.59%      1.24% |        1674     98.76%    100.00%
system.ruby.L1Cache_Controller.SS.Load::total         1695                      
system.ruby.L1Cache_Controller.SS.Inv    |           6     19.35%     19.35% |          12     38.71%     58.06% |          13     41.94%    100.00%
system.ruby.L1Cache_Controller.SS.Inv::total           31                      
system.ruby.L1Cache_Controller.SS.L1_Replacement |         701      0.68%      0.68% |       51151     49.78%     50.46% |       50907     49.54%    100.00%
system.ruby.L1Cache_Controller.SS.L1_Replacement::total       102759                      
system.ruby.L1Cache_Controller.E.WriteBack |         536      0.07%      0.07% |      351531     46.88%     46.96% |      397717     53.04%    100.00%
system.ruby.L1Cache_Controller.E.WriteBack::total       749784                      
system.ruby.L1Cache_Controller.E.L0_Invalidate_Own |        2556     17.44%     17.44% |        5928     40.45%     57.89% |        6172     42.11%    100.00%
system.ruby.L1Cache_Controller.E.L0_Invalidate_Own::total        14656                      
system.ruby.L1Cache_Controller.E.L0_Invalidate_Else |          12      0.70%      0.70% |          26      1.51%      2.21% |        1683     97.79%    100.00%
system.ruby.L1Cache_Controller.E.L0_Invalidate_Else::total         1721                      
system.ruby.L1Cache_Controller.EE.Load   |           0      0.00%      0.00% |           0      0.00%      0.00% |           3    100.00%    100.00%
system.ruby.L1Cache_Controller.EE.Load::total            3                      
system.ruby.L1Cache_Controller.EE.Inv    |           3    100.00%    100.00% |           0      0.00%    100.00% |           0      0.00%    100.00%
system.ruby.L1Cache_Controller.EE.Inv::total            3                      
system.ruby.L1Cache_Controller.EE.L1_Replacement |        2165     15.41%     15.41% |        5819     41.43%     56.84% |        6063     43.16%    100.00%
system.ruby.L1Cache_Controller.EE.L1_Replacement::total        14047                      
system.ruby.L1Cache_Controller.EE.Fwd_GETX |           0      0.00%      0.00% |           1    100.00%    100.00% |           0      0.00%    100.00%
system.ruby.L1Cache_Controller.EE.Fwd_GETX::total            1                      
system.ruby.L1Cache_Controller.EE.Fwd_GETS |           8      0.47%      0.47% |          24      1.40%      1.87% |        1679     98.13%    100.00%
system.ruby.L1Cache_Controller.EE.Fwd_GETS::total         1711                      
system.ruby.L1Cache_Controller.M.WriteBack |      569350     88.82%     88.82% |       37038      5.78%     94.60% |       34642      5.40%    100.00%
system.ruby.L1Cache_Controller.M.WriteBack::total       641030                      
system.ruby.L1Cache_Controller.M.L0_Invalidate_Own |        2175     45.56%     45.56% |        1304     27.31%     72.87% |        1295     27.13%    100.00%
system.ruby.L1Cache_Controller.M.L0_Invalidate_Own::total         4774                      
system.ruby.L1Cache_Controller.M.L0_Invalidate_Else |         503     97.67%     97.67% |           8      1.55%     99.22% |           4      0.78%    100.00%
system.ruby.L1Cache_Controller.M.L0_Invalidate_Else::total          515                      
system.ruby.L1Cache_Controller.MM.Load   |          88      0.12%      0.12% |       37097     51.61%     51.73% |       34692     48.27%    100.00%
system.ruby.L1Cache_Controller.MM.Load::total        71877                      
system.ruby.L1Cache_Controller.MM.Store  |          25    100.00%    100.00% |           0      0.00%    100.00% |           0      0.00%    100.00%
system.ruby.L1Cache_Controller.MM.Store::total           25                      
system.ruby.L1Cache_Controller.MM.Inv    |         461    100.00%    100.00% |           0      0.00%    100.00% |           0      0.00%    100.00%
system.ruby.L1Cache_Controller.MM.Inv::total          461                      
system.ruby.L1Cache_Controller.MM.L1_Replacement |      565471     44.41%     44.41% |      352764     27.70%     72.11% |      355145     27.89%    100.00%
system.ruby.L1Cache_Controller.MM.L1_Replacement::total      1273380                      
system.ruby.L1Cache_Controller.MM.Fwd_GETX |           1     20.00%     20.00% |           2     40.00%     60.00% |           2     40.00%    100.00%
system.ruby.L1Cache_Controller.MM.Fwd_GETX::total            5                      
system.ruby.L1Cache_Controller.MM.Fwd_GETS |        3653      7.68%      7.68% |           7      0.01%      7.70% |       43893     92.30%    100.00%
system.ruby.L1Cache_Controller.MM.Fwd_GETS::total        47553                      
system.ruby.L1Cache_Controller.IS.Data_Exclusive |        3711      0.48%      0.48% |      357592     46.62%     47.11% |      405665     52.89%    100.00%
system.ruby.L1Cache_Controller.IS.Data_Exclusive::total       766968                      
system.ruby.L1Cache_Controller.IS.DataS_fromL1 |          15      0.03%      0.03% |       45683     92.53%     92.56% |        3674      7.44%    100.00%
system.ruby.L1Cache_Controller.IS.DataS_fromL1::total        49372                      
system.ruby.L1Cache_Controller.IS.Data_all_Acks |          15      0.10%      0.10% |        9274     62.32%     62.42% |        5592     37.58%    100.00%
system.ruby.L1Cache_Controller.IS.Data_all_Acks::total        14881                      
system.ruby.L1Cache_Controller.IM.Data   |           1     33.33%     33.33% |           1     33.33%     66.67% |           1     33.33%    100.00%
system.ruby.L1Cache_Controller.IM.Data::total            3                      
system.ruby.L1Cache_Controller.IM.Data_all_Acks |      572330     99.55%     99.55% |        1282      0.22%     99.78% |        1279      0.22%    100.00%
system.ruby.L1Cache_Controller.IM.Data_all_Acks::total       574891                      
system.ruby.L1Cache_Controller.SM.Ack    |          34     91.89%     91.89% |           2      5.41%     97.30% |           1      2.70%    100.00%
system.ruby.L1Cache_Controller.SM.Ack::total           37                      
system.ruby.L1Cache_Controller.SM.Ack_all |          25     83.33%     83.33% |           3     10.00%     93.33% |           2      6.67%    100.00%
system.ruby.L1Cache_Controller.SM.Ack_all::total           30                      
system.ruby.L1Cache_Controller.M_I.Fwd_GETS |           0      0.00%      0.00% |           0      0.00%      0.00% |         108    100.00%    100.00%
system.ruby.L1Cache_Controller.M_I.Fwd_GETS::total          108                      
system.ruby.L1Cache_Controller.M_I.WB_Ack |      567636     44.09%     44.09% |      358583     27.86%     71.95% |      361100     28.05%    100.00%
system.ruby.L1Cache_Controller.M_I.WB_Ack::total      1287319                      
system.ruby.L1Cache_Controller.SINK_WB_ACK.WB_Ack |           0      0.00%      0.00% |           0      0.00%      0.00% |         108    100.00%    100.00%
system.ruby.L1Cache_Controller.SINK_WB_ACK.WB_Ack::total          108                      
system.ruby.L1Cache_Controller.S_IL0.L0_Invalidate_Own |           0      0.00%      0.00% |       51140     87.49%     87.49% |        7312     12.51%    100.00%
system.ruby.L1Cache_Controller.S_IL0.L0_Invalidate_Own::total        58452                      
system.ruby.L1Cache_Controller.S_IL0.L0_Invalidate_Else |           2     12.50%     12.50% |           5     31.25%     43.75% |           9     56.25%    100.00%
system.ruby.L1Cache_Controller.S_IL0.L0_Invalidate_Else::total           16                      
system.ruby.L1Cache_Controller.S_IL0.L0_Ack |           2      0.00%      0.00% |       51145     87.48%     87.48% |        7321     12.52%    100.00%
system.ruby.L1Cache_Controller.S_IL0.L0_Ack::total        58468                      
system.ruby.L1Cache_Controller.E_IL0.L0_DataAck |         392     64.05%     64.05% |         110     17.97%     82.03% |         110     17.97%    100.00%
system.ruby.L1Cache_Controller.E_IL0.L0_DataAck::total          612                      
system.ruby.L1Cache_Controller.E_IL0.L0_Invalidate_Own |        2556     17.44%     17.44% |        5928     40.45%     57.89% |        6172     42.11%    100.00%
system.ruby.L1Cache_Controller.E_IL0.L0_Invalidate_Own::total        14656                      
system.ruby.L1Cache_Controller.E_IL0.L0_Invalidate_Else |          12      0.70%      0.70% |          26      1.51%      2.21% |        1683     97.79%    100.00%
system.ruby.L1Cache_Controller.E_IL0.L0_Invalidate_Else::total         1721                      
system.ruby.L1Cache_Controller.E_IL0.L0_Ack |        2176     13.80%     13.80% |        5844     37.07%     50.87% |        7745     49.13%    100.00%
system.ruby.L1Cache_Controller.E_IL0.L0_Ack::total        15765                      
system.ruby.L1Cache_Controller.M_IL0.L0_DataAck |        2634     51.48%     51.48% |        1242     24.27%     75.75% |        1241     24.25%    100.00%
system.ruby.L1Cache_Controller.M_IL0.L0_DataAck::total         5117                      
system.ruby.L1Cache_Controller.M_IL0.L0_Invalidate_Own |        2175     45.56%     45.56% |        1304     27.31%     72.87% |        1295     27.13%    100.00%
system.ruby.L1Cache_Controller.M_IL0.L0_Invalidate_Own::total         4774                      
system.ruby.L1Cache_Controller.M_IL0.L0_Invalidate_Else |         503     97.67%     97.67% |           8      1.55%     99.22% |           4      0.78%    100.00%
system.ruby.L1Cache_Controller.M_IL0.L0_Invalidate_Else::total          515                      
system.ruby.L1Cache_Controller.M_IL0.L0_Ack |          44     25.58%     25.58% |          70     40.70%     66.28% |          58     33.72%    100.00%
system.ruby.L1Cache_Controller.M_IL0.L0_Ack::total          172                      
system.ruby.L2Cache_Controller.L1_GETS         831228      0.00%      0.00%
system.ruby.L2Cache_Controller.L1_GETX         574894      0.00%      0.00%
system.ruby.L2Cache_Controller.L1_UPGRADE           27      0.00%      0.00%
system.ruby.L2Cache_Controller.L1_PUTX        1287535      0.00%      0.00%
system.ruby.L2Cache_Controller.L2_Replacement        11352      0.00%      0.00%
system.ruby.L2Cache_Controller.L2_Replacement_clean          698      0.00%      0.00%
system.ruby.L2Cache_Controller.Mem_Data        446031      0.00%      0.00%
system.ruby.L2Cache_Controller.Mem_Ack          12050      0.00%      0.00%
system.ruby.L2Cache_Controller.WB_Data           5835      0.00%      0.00%
system.ruby.L2Cache_Controller.WB_Data_clean        43998      0.00%      0.00%
system.ruby.L2Cache_Controller.Ack                 11      0.00%      0.00%
system.ruby.L2Cache_Controller.Ack_all             13      0.00%      0.00%
system.ruby.L2Cache_Controller.Unblock          49372      0.00%      0.00%
system.ruby.L2Cache_Controller.Exclusive_Unblock      1341889      0.00%      0.00%
system.ruby.L2Cache_Controller.NP.L1_GETS         3345      0.00%      0.00%
system.ruby.L2Cache_Controller.NP.L1_GETX       442686      0.00%      0.00%
system.ruby.L2Cache_Controller.SS.L1_GETS        14863      0.00%      0.00%
system.ruby.L2Cache_Controller.SS.L1_GETX            3      0.00%      0.00%
system.ruby.L2Cache_Controller.SS.L1_UPGRADE           27      0.00%      0.00%
system.ruby.L2Cache_Controller.SS.L1_PUTX          108      0.00%      0.00%
system.ruby.L2Cache_Controller.SS.L2_Replacement            2      0.00%      0.00%
system.ruby.L2Cache_Controller.SS.L2_Replacement_clean            8      0.00%      0.00%
system.ruby.L2Cache_Controller.M.L1_GETS       763632      0.00%      0.00%
system.ruby.L2Cache_Controller.M.L1_GETX       132199      0.00%      0.00%
system.ruby.L2Cache_Controller.M.L2_Replacement        11349      0.00%      0.00%
system.ruby.L2Cache_Controller.M.L2_Replacement_clean          227      0.00%      0.00%
system.ruby.L2Cache_Controller.MT.L1_GETS        49372      0.00%      0.00%
system.ruby.L2Cache_Controller.MT.L1_GETX            6      0.00%      0.00%
system.ruby.L2Cache_Controller.MT.L1_PUTX      1287319      0.00%      0.00%
system.ruby.L2Cache_Controller.MT.L2_Replacement            1      0.00%      0.00%
system.ruby.L2Cache_Controller.MT.L2_Replacement_clean          463      0.00%      0.00%
system.ruby.L2Cache_Controller.M_I.Mem_Ack        12050      0.00%      0.00%
system.ruby.L2Cache_Controller.MT_I.Ack_all            1      0.00%      0.00%
system.ruby.L2Cache_Controller.MCT_I.WB_Data          461      0.00%      0.00%
system.ruby.L2Cache_Controller.MCT_I.Ack_all            2      0.00%      0.00%
system.ruby.L2Cache_Controller.I_I.Ack              8      0.00%      0.00%
system.ruby.L2Cache_Controller.I_I.Ack_all            8      0.00%      0.00%
system.ruby.L2Cache_Controller.S_I.Ack              3      0.00%      0.00%
system.ruby.L2Cache_Controller.S_I.Ack_all            2      0.00%      0.00%
system.ruby.L2Cache_Controller.ISS.L1_GETS            9      0.00%      0.00%
system.ruby.L2Cache_Controller.ISS.Mem_Data         3336      0.00%      0.00%
system.ruby.L2Cache_Controller.IS.Mem_Data            9      0.00%      0.00%
system.ruby.L2Cache_Controller.IM.Mem_Data       442686      0.00%      0.00%
system.ruby.L2Cache_Controller.SS_MB.Exclusive_Unblock           30      0.00%      0.00%
system.ruby.L2Cache_Controller.MT_MB.L1_GETS            4      0.00%      0.00%
system.ruby.L2Cache_Controller.MT_MB.Exclusive_Unblock      1341859      0.00%      0.00%
system.ruby.L2Cache_Controller.MT_IIB.L1_GETS            3      0.00%      0.00%
system.ruby.L2Cache_Controller.MT_IIB.L1_PUTX          108      0.00%      0.00%
system.ruby.L2Cache_Controller.MT_IIB.WB_Data         5302      0.00%      0.00%
system.ruby.L2Cache_Controller.MT_IIB.WB_Data_clean        43987      0.00%      0.00%
system.ruby.L2Cache_Controller.MT_IIB.Unblock           83      0.00%      0.00%
system.ruby.L2Cache_Controller.MT_IB.WB_Data           72      0.00%      0.00%
system.ruby.L2Cache_Controller.MT_IB.WB_Data_clean           11      0.00%      0.00%
system.ruby.L2Cache_Controller.MT_SB.Unblock        49289      0.00%      0.00%

---------- End Simulation Statistics   ----------
