
---------- Begin Simulation Statistics ----------
sim_seconds                                  2.907000                       # Number of seconds simulated
sim_ticks                                2907000201000                       # Number of ticks simulated
final_tick                               2907000201000                       # Number of ticks from beginning of simulation (restored from checkpoints and never reset)
sim_freq                                 1000000000000                       # Frequency of simulated ticks
host_inst_rate                                 129940                       # Simulator instruction rate (inst/s)
host_op_rate                                   359715                       # Simulator op (including micro ops) rate (op/s)
host_tick_rate                              217629002                       # Simulator tick rate (ticks/s)
host_mem_usage                                3366780                       # Number of bytes of host memory used
host_seconds                                 13357.60                       # Real time elapsed on the host
sim_insts                                  1735686341                       # Number of instructions simulated
sim_ops                                    4804922060                       # Number of ops (including micro ops) simulated
system.voltage_domain.voltage                       1                       # Voltage in Volts
system.clk_domain.clock                          1000                       # Clock period in ticks
system.mem_ctrls.bytes_read::ruby.dir_cntrl0    224092928                       # Number of bytes read from this memory
system.mem_ctrls.bytes_read::total          224092928                       # Number of bytes read from this memory
system.mem_ctrls.bytes_written::ruby.dir_cntrl0    110334336                       # Number of bytes written to this memory
system.mem_ctrls.bytes_written::total       110334336                       # Number of bytes written to this memory
system.mem_ctrls.num_reads::ruby.dir_cntrl0      3501452                       # Number of read requests responded to by this memory
system.mem_ctrls.num_reads::total             3501452                       # Number of read requests responded to by this memory
system.mem_ctrls.num_writes::ruby.dir_cntrl0      1723974                       # Number of write requests responded to by this memory
system.mem_ctrls.num_writes::total            1723974                       # Number of write requests responded to by this memory
system.mem_ctrls.bw_read::ruby.dir_cntrl0     77087345                       # Total read bandwidth from this memory (bytes/s)
system.mem_ctrls.bw_read::total              77087345                       # Total read bandwidth from this memory (bytes/s)
system.mem_ctrls.bw_write::ruby.dir_cntrl0     37954705                       # Write bandwidth from this memory (bytes/s)
system.mem_ctrls.bw_write::total             37954705                       # Write bandwidth from this memory (bytes/s)
system.mem_ctrls.bw_total::ruby.dir_cntrl0    115042051                       # Total bandwidth to/from this memory (bytes/s)
system.mem_ctrls.bw_total::total            115042051                       # Total bandwidth to/from this memory (bytes/s)
system.mem_ctrls.memReq                       5225426                       # Total number of memory requests
system.mem_ctrls.memRead                      3501452                       # Number of memory reads
system.mem_ctrls.memWrite                     1723974                       # Number of memory writes
system.mem_ctrls.memRefresh                  36656389                       # Number of memory refreshes
system.mem_ctrls.memWaitCycles               15208723                       # Delay stalled at the head of the bank queue
system.mem_ctrls.memInputQ                       1727                       # Delay in the input queue
system.mem_ctrls.memBankQ                       78923                       # Delay behind the head of the bank queue
system.mem_ctrls.totalStalls                 15289373                       # Total number of stall cycles
system.mem_ctrls.stallsPerReq                2.925957                       # Expected number of stall cycles per request
system.mem_ctrls.memBankBusy                 15085347                       # memory stalls due to busy bank
system.mem_ctrls.memBusBusy                     89296                       # memory stalls due to busy bus
system.mem_ctrls.memReadWriteBusy                1946                       # memory stalls due to read write turnaround
system.mem_ctrls.memDataBusBusy                  5142                       # memory stalls due to read read turnaround
system.mem_ctrls.memArbWait                     26992                       # memory stalls due to arbitration
system.mem_ctrls.memBankCount            |      162372      3.11%      3.11% |      162154      3.10%      6.21% |      163441      3.13%      9.34% |      163164      3.12%     12.46% |      163950      3.14%     15.60% |      163221      3.12%     18.72% |      163410      3.13%     21.85% |      164003      3.14%     24.99% |      163995      3.14%     28.13% |      163104      3.12%     31.25% |      164094      3.14%     34.39% |      163507      3.13%     37.52% |      162840      3.12%     40.63% |      163185      3.12%     43.76% |      162522      3.11%     46.87% |      162943      3.12%     49.98% |      163807      3.13%     53.12% |      163221      3.12%     56.24% |      163009      3.12%     59.36% |      161800      3.10%     62.46% |      163320      3.13%     65.58% |      163103      3.12%     68.71% |      163224      3.12%     71.83% |      162957      3.12%     74.95% |      163390      3.13%     78.07% |      163411      3.13%     81.20% |      163556      3.13%     84.33% |      163684      3.13%     87.46% |      163719      3.13%     90.60% |      164109      3.14%     93.74% |      163255      3.12%     96.86% |      163956      3.14%    100.00% # Number of accesses per bank
system.mem_ctrls.memBankCount::total          5225426                       # Number of accesses per bank
system.cpu_voltage_domain.voltage                   1                       # Voltage in Volts
system.cpu_clk_domain.clock                       500                       # Clock period in ticks
system.cpu0.apic_clk_domain.clock                8000                       # Clock period in ticks
system.cpu0.workload.num_syscalls                 110                       # Number of system calls
system.cpu0.numCycles                      5814000402                       # number of cpu cycles simulated
system.cpu0.numWorkItemsStarted                     0                       # number of work items this cpu started
system.cpu0.numWorkItemsCompleted                   0                       # number of work items this cpu completed
system.cpu0.committedInsts                 1619531877                       # Number of instructions committed
system.cpu0.committedOps                   4572625670                       # Number of ops (including micro ops) committed
system.cpu0.num_int_alu_accesses           4316442049                       # Number of integer alu accesses
system.cpu0.num_fp_alu_accesses             108341154                       # Number of float alu accesses
system.cpu0.num_func_calls                  152159734                       # number of times a function call or return occured
system.cpu0.num_conditional_control_insts    356900212                       # number of instructions that are conditional controls
system.cpu0.num_int_insts                  4316442049                       # number of integer instructions
system.cpu0.num_fp_insts                    108341154                       # number of float instructions
system.cpu0.num_int_register_reads         9103097166                       # number of times the integer registers were read
system.cpu0.num_int_register_writes        4285315595                       # number of times the integer registers were written
system.cpu0.num_fp_register_reads           174106828                       # number of times the floating registers were read
system.cpu0.num_fp_register_writes           85151978                       # number of times the floating registers were written
system.cpu0.num_cc_register_reads          3656316813                       # number of times the CC registers were read
system.cpu0.num_cc_register_writes         1368567741                       # number of times the CC registers were written
system.cpu0.num_mem_refs                    711673921                       # number of memory refs
system.cpu0.num_load_insts                  433659757                       # Number of load instructions
system.cpu0.num_store_insts                 278014164                       # Number of store instructions
system.cpu0.num_idle_cycles                  0.002000                       # Number of idle cycles
system.cpu0.num_busy_cycles              5814000401.998000                       # Number of busy cycles
system.cpu0.not_idle_fraction                1.000000                       # Percentage of non-idle cycles
system.cpu0.idle_fraction                    0.000000                       # Percentage of idle cycles
system.cpu0.Branches                        582058242                       # Number of branches fetched
system.cpu0.op_class::No_OpClass             88981571      1.95%      1.95% # Class of executed instruction
system.cpu0.op_class::IntAlu               3306782092     72.32%     74.26% # Class of executed instruction
system.cpu0.op_class::IntMult                     349      0.00%     74.26% # Class of executed instruction
system.cpu0.op_class::IntDiv                380036506      8.31%     82.57% # Class of executed instruction
system.cpu0.op_class::FloatAdd               85151231      1.86%     84.44% # Class of executed instruction
system.cpu0.op_class::FloatCmp                      0      0.00%     84.44% # Class of executed instruction
system.cpu0.op_class::FloatCvt                      0      0.00%     84.44% # Class of executed instruction
system.cpu0.op_class::FloatMult                     0      0.00%     84.44% # Class of executed instruction
system.cpu0.op_class::FloatDiv                      0      0.00%     84.44% # Class of executed instruction
system.cpu0.op_class::FloatSqrt                     0      0.00%     84.44% # Class of executed instruction
system.cpu0.op_class::SimdAdd                       0      0.00%     84.44% # Class of executed instruction
system.cpu0.op_class::SimdAddAcc                    0      0.00%     84.44% # Class of executed instruction
system.cpu0.op_class::SimdAlu                       0      0.00%     84.44% # Class of executed instruction
system.cpu0.op_class::SimdCmp                       0      0.00%     84.44% # Class of executed instruction
system.cpu0.op_class::SimdCvt                       0      0.00%     84.44% # Class of executed instruction
system.cpu0.op_class::SimdMisc                      0      0.00%     84.44% # Class of executed instruction
system.cpu0.op_class::SimdMult                      0      0.00%     84.44% # Class of executed instruction
system.cpu0.op_class::SimdMultAcc                   0      0.00%     84.44% # Class of executed instruction
system.cpu0.op_class::SimdShift                     0      0.00%     84.44% # Class of executed instruction
system.cpu0.op_class::SimdShiftAcc                  0      0.00%     84.44% # Class of executed instruction
system.cpu0.op_class::SimdSqrt                      0      0.00%     84.44% # Class of executed instruction
system.cpu0.op_class::SimdFloatAdd                  0      0.00%     84.44% # Class of executed instruction
system.cpu0.op_class::SimdFloatAlu                  0      0.00%     84.44% # Class of executed instruction
system.cpu0.op_class::SimdFloatCmp                  0      0.00%     84.44% # Class of executed instruction
system.cpu0.op_class::SimdFloatCvt                  0      0.00%     84.44% # Class of executed instruction
system.cpu0.op_class::SimdFloatDiv                  0      0.00%     84.44% # Class of executed instruction
system.cpu0.op_class::SimdFloatMisc                 0      0.00%     84.44% # Class of executed instruction
system.cpu0.op_class::SimdFloatMult                 0      0.00%     84.44% # Class of executed instruction
system.cpu0.op_class::SimdFloatMultAcc              0      0.00%     84.44% # Class of executed instruction
system.cpu0.op_class::SimdFloatSqrt                 0      0.00%     84.44% # Class of executed instruction
system.cpu0.op_class::MemRead               433659757      9.48%     93.92% # Class of executed instruction
system.cpu0.op_class::MemWrite              278014164      6.08%    100.00% # Class of executed instruction
system.cpu0.op_class::IprAccess                     0      0.00%    100.00% # Class of executed instruction
system.cpu0.op_class::InstPrefetch                  0      0.00%    100.00% # Class of executed instruction
system.cpu0.op_class::total                4572625670                       # Class of executed instruction
system.cpu1.apic_clk_domain.clock                8000                       # Clock period in ticks
system.cpu1.numCycles                      5810826372                       # number of cpu cycles simulated
system.cpu1.numWorkItemsStarted                     0                       # number of work items this cpu started
system.cpu1.numWorkItemsCompleted                   0                       # number of work items this cpu completed
system.cpu1.committedInsts                   58077232                       # Number of instructions committed
system.cpu1.committedOps                    116148195                       # Number of ops (including micro ops) committed
system.cpu1.num_int_alu_accesses             87175319                       # Number of integer alu accesses
system.cpu1.num_fp_alu_accesses              56894279                       # Number of float alu accesses
system.cpu1.num_func_calls                     161815                       # number of times a function call or return occured
system.cpu1.num_conditional_control_insts      7134452                       # number of instructions that are conditional controls
system.cpu1.num_int_insts                    87175319                       # number of integer instructions
system.cpu1.num_fp_insts                     56894279                       # number of float instructions
system.cpu1.num_int_register_reads          153196448                       # number of times the integer registers were read
system.cpu1.num_int_register_writes          52032168                       # number of times the integer registers were written
system.cpu1.num_fp_register_reads            86190677                       # number of times the floating registers were read
system.cpu1.num_fp_register_writes           56813392                       # number of times the floating registers were written
system.cpu1.num_cc_register_reads            42887640                       # number of times the CC registers were read
system.cpu1.num_cc_register_writes           42862530                       # number of times the CC registers were written
system.cpu1.num_mem_refs                     28338623                       # number of memory refs
system.cpu1.num_load_insts                   28176742                       # Number of load instructions
system.cpu1.num_store_insts                    161881                       # Number of store instructions
system.cpu1.num_idle_cycles              5543428020.187795                       # Number of idle cycles
system.cpu1.num_busy_cycles              267398351.812205                       # Number of busy cycles
system.cpu1.not_idle_fraction                0.046017                       # Percentage of non-idle cycles
system.cpu1.idle_fraction                    0.953983                       # Percentage of idle cycles
system.cpu1.Branches                          7383422                       # Number of branches fetched
system.cpu1.op_class::No_OpClass                    2      0.00%      0.00% # Class of executed instruction
system.cpu1.op_class::IntAlu                 58594024     50.45%     50.45% # Class of executed instruction
system.cpu1.op_class::IntMult                  242657      0.21%     50.66% # Class of executed instruction
system.cpu1.op_class::IntDiv                       14      0.00%     50.66% # Class of executed instruction
system.cpu1.op_class::FloatAdd               28972875     24.94%     75.60% # Class of executed instruction
system.cpu1.op_class::FloatCmp                      0      0.00%     75.60% # Class of executed instruction
system.cpu1.op_class::FloatCvt                      0      0.00%     75.60% # Class of executed instruction
system.cpu1.op_class::FloatMult                     0      0.00%     75.60% # Class of executed instruction
system.cpu1.op_class::FloatDiv                      0      0.00%     75.60% # Class of executed instruction
system.cpu1.op_class::FloatSqrt                     0      0.00%     75.60% # Class of executed instruction
system.cpu1.op_class::SimdAdd                       0      0.00%     75.60% # Class of executed instruction
system.cpu1.op_class::SimdAddAcc                    0      0.00%     75.60% # Class of executed instruction
system.cpu1.op_class::SimdAlu                       0      0.00%     75.60% # Class of executed instruction
system.cpu1.op_class::SimdCmp                       0      0.00%     75.60% # Class of executed instruction
system.cpu1.op_class::SimdCvt                       0      0.00%     75.60% # Class of executed instruction
system.cpu1.op_class::SimdMisc                      0      0.00%     75.60% # Class of executed instruction
system.cpu1.op_class::SimdMult                      0      0.00%     75.60% # Class of executed instruction
system.cpu1.op_class::SimdMultAcc                   0      0.00%     75.60% # Class of executed instruction
system.cpu1.op_class::SimdShift                     0      0.00%     75.60% # Class of executed instruction
system.cpu1.op_class::SimdShiftAcc                  0      0.00%     75.60% # Class of executed instruction
system.cpu1.op_class::SimdSqrt                      0      0.00%     75.60% # Class of executed instruction
system.cpu1.op_class::SimdFloatAdd                  0      0.00%     75.60% # Class of executed instruction
system.cpu1.op_class::SimdFloatAlu                  0      0.00%     75.60% # Class of executed instruction
system.cpu1.op_class::SimdFloatCmp                  0      0.00%     75.60% # Class of executed instruction
system.cpu1.op_class::SimdFloatCvt                  0      0.00%     75.60% # Class of executed instruction
system.cpu1.op_class::SimdFloatDiv                  0      0.00%     75.60% # Class of executed instruction
system.cpu1.op_class::SimdFloatMisc                 0      0.00%     75.60% # Class of executed instruction
system.cpu1.op_class::SimdFloatMult                 0      0.00%     75.60% # Class of executed instruction
system.cpu1.op_class::SimdFloatMultAcc              0      0.00%     75.60% # Class of executed instruction
system.cpu1.op_class::SimdFloatSqrt                 0      0.00%     75.60% # Class of executed instruction
system.cpu1.op_class::MemRead                28176742     24.26%     99.86% # Class of executed instruction
system.cpu1.op_class::MemWrite                 161881      0.14%    100.00% # Class of executed instruction
system.cpu1.op_class::IprAccess                     0      0.00%    100.00% # Class of executed instruction
system.cpu1.op_class::InstPrefetch                  0      0.00%    100.00% # Class of executed instruction
system.cpu1.op_class::total                 116148195                       # Class of executed instruction
system.cpu2.apic_clk_domain.clock                8000                       # Clock period in ticks
system.cpu2.numCycles                      5813765534                       # number of cpu cycles simulated
system.cpu2.numWorkItemsStarted                     0                       # number of work items this cpu started
system.cpu2.numWorkItemsCompleted                   0                       # number of work items this cpu completed
system.cpu2.committedInsts                   58077232                       # Number of instructions committed
system.cpu2.committedOps                    116148195                       # Number of ops (including micro ops) committed
system.cpu2.num_int_alu_accesses             87175319                       # Number of integer alu accesses
system.cpu2.num_fp_alu_accesses              56894279                       # Number of float alu accesses
system.cpu2.num_func_calls                     161815                       # number of times a function call or return occured
system.cpu2.num_conditional_control_insts      7134452                       # number of instructions that are conditional controls
system.cpu2.num_int_insts                    87175319                       # number of integer instructions
system.cpu2.num_fp_insts                     56894279                       # number of float instructions
system.cpu2.num_int_register_reads          153196448                       # number of times the integer registers were read
system.cpu2.num_int_register_writes          52032168                       # number of times the integer registers were written
system.cpu2.num_fp_register_reads            86190677                       # number of times the floating registers were read
system.cpu2.num_fp_register_writes           56813392                       # number of times the floating registers were written
system.cpu2.num_cc_register_reads            42887640                       # number of times the CC registers were read
system.cpu2.num_cc_register_writes           42862530                       # number of times the CC registers were written
system.cpu2.num_mem_refs                     28338623                       # number of memory refs
system.cpu2.num_load_insts                   28176742                       # Number of load instructions
system.cpu2.num_store_insts                    161881                       # Number of store instructions
system.cpu2.num_idle_cycles              5543293406.695919                       # Number of idle cycles
system.cpu2.num_busy_cycles              270472127.304081                       # Number of busy cycles
system.cpu2.not_idle_fraction                0.046523                       # Percentage of non-idle cycles
system.cpu2.idle_fraction                    0.953477                       # Percentage of idle cycles
system.cpu2.Branches                          7383422                       # Number of branches fetched
system.cpu2.op_class::No_OpClass                    2      0.00%      0.00% # Class of executed instruction
system.cpu2.op_class::IntAlu                 58594024     50.45%     50.45% # Class of executed instruction
system.cpu2.op_class::IntMult                  242657      0.21%     50.66% # Class of executed instruction
system.cpu2.op_class::IntDiv                       14      0.00%     50.66% # Class of executed instruction
system.cpu2.op_class::FloatAdd               28972875     24.94%     75.60% # Class of executed instruction
system.cpu2.op_class::FloatCmp                      0      0.00%     75.60% # Class of executed instruction
system.cpu2.op_class::FloatCvt                      0      0.00%     75.60% # Class of executed instruction
system.cpu2.op_class::FloatMult                     0      0.00%     75.60% # Class of executed instruction
system.cpu2.op_class::FloatDiv                      0      0.00%     75.60% # Class of executed instruction
system.cpu2.op_class::FloatSqrt                     0      0.00%     75.60% # Class of executed instruction
system.cpu2.op_class::SimdAdd                       0      0.00%     75.60% # Class of executed instruction
system.cpu2.op_class::SimdAddAcc                    0      0.00%     75.60% # Class of executed instruction
system.cpu2.op_class::SimdAlu                       0      0.00%     75.60% # Class of executed instruction
system.cpu2.op_class::SimdCmp                       0      0.00%     75.60% # Class of executed instruction
system.cpu2.op_class::SimdCvt                       0      0.00%     75.60% # Class of executed instruction
system.cpu2.op_class::SimdMisc                      0      0.00%     75.60% # Class of executed instruction
system.cpu2.op_class::SimdMult                      0      0.00%     75.60% # Class of executed instruction
system.cpu2.op_class::SimdMultAcc                   0      0.00%     75.60% # Class of executed instruction
system.cpu2.op_class::SimdShift                     0      0.00%     75.60% # Class of executed instruction
system.cpu2.op_class::SimdShiftAcc                  0      0.00%     75.60% # Class of executed instruction
system.cpu2.op_class::SimdSqrt                      0      0.00%     75.60% # Class of executed instruction
system.cpu2.op_class::SimdFloatAdd                  0      0.00%     75.60% # Class of executed instruction
system.cpu2.op_class::SimdFloatAlu                  0      0.00%     75.60% # Class of executed instruction
system.cpu2.op_class::SimdFloatCmp                  0      0.00%     75.60% # Class of executed instruction
system.cpu2.op_class::SimdFloatCvt                  0      0.00%     75.60% # Class of executed instruction
system.cpu2.op_class::SimdFloatDiv                  0      0.00%     75.60% # Class of executed instruction
system.cpu2.op_class::SimdFloatMisc                 0      0.00%     75.60% # Class of executed instruction
system.cpu2.op_class::SimdFloatMult                 0      0.00%     75.60% # Class of executed instruction
system.cpu2.op_class::SimdFloatMultAcc              0      0.00%     75.60% # Class of executed instruction
system.cpu2.op_class::SimdFloatSqrt                 0      0.00%     75.60% # Class of executed instruction
system.cpu2.op_class::MemRead                28176742     24.26%     99.86% # Class of executed instruction
system.cpu2.op_class::MemWrite                 161881      0.14%    100.00% # Class of executed instruction
system.cpu2.op_class::IprAccess                     0      0.00%    100.00% # Class of executed instruction
system.cpu2.op_class::InstPrefetch                  0      0.00%    100.00% # Class of executed instruction
system.cpu2.op_class::total                 116148195                       # Class of executed instruction
system.ruby.clk_domain.clock                      500                       # Clock period in ticks
system.ruby.delayHist::bucket_size                 16                       # delay histogram for all message
system.ruby.delayHist::max_bucket                 159                       # delay histogram for all message
system.ruby.delayHist::samples               40148453                       # delay histogram for all message
system.ruby.delayHist::mean                  0.445299                       # delay histogram for all message
system.ruby.delayHist::stdev                 1.828493                       # delay histogram for all message
system.ruby.delayHist                    |    40146297     99.99%     99.99% |        2136      0.01%    100.00% |          10      0.00%    100.00% |           8      0.00%    100.00% |           1      0.00%    100.00% |           1      0.00%    100.00% |           0      0.00%    100.00% |           0      0.00%    100.00% |           0      0.00%    100.00% |           0      0.00%    100.00% # delay histogram for all message
system.ruby.delayHist::total                 40148453                       # delay histogram for all message
system.ruby.outstanding_req_hist::bucket_size            1                      
system.ruby.outstanding_req_hist::max_bucket            9                      
system.ruby.outstanding_req_hist::samples   3024782722                      
system.ruby.outstanding_req_hist::mean       1.000195                      
system.ruby.outstanding_req_hist::gmean      1.000135                      
system.ruby.outstanding_req_hist::stdev      0.013964                      
system.ruby.outstanding_req_hist         |           0      0.00%      0.00% |  3024192834     99.98%     99.98% |      589888      0.02%    100.00% |           0      0.00%    100.00% |           0      0.00%    100.00% |           0      0.00%    100.00% |           0      0.00%    100.00% |           0      0.00%    100.00% |           0      0.00%    100.00% |           0      0.00%    100.00%
system.ruby.outstanding_req_hist::total    3024782722                      
system.ruby.latency_hist::bucket_size              16                      
system.ruby.latency_hist::max_bucket              159                      
system.ruby.latency_hist::samples          3024782722                      
system.ruby.latency_hist::mean               1.100287                      
system.ruby.latency_hist::gmean              1.007188                      
system.ruby.latency_hist::stdev              2.629208                      
system.ruby.latency_hist                 |  3019295453     99.82%     99.82% |     1982648      0.07%     99.88% |        3063      0.00%     99.88% |     1194089      0.04%     99.92% |      712401      0.02%     99.95% |     1569126      0.05%    100.00% |       25600      0.00%    100.00% |         250      0.00%    100.00% |          86      0.00%    100.00% |           6      0.00%    100.00%
system.ruby.latency_hist::total            3024782722                      
system.ruby.hit_latency_hist::bucket_size           16                      
system.ruby.hit_latency_hist::max_bucket          159                      
system.ruby.hit_latency_hist::samples      3024782722                      
system.ruby.hit_latency_hist::mean           1.100287                      
system.ruby.hit_latency_hist::gmean          1.007188                      
system.ruby.hit_latency_hist::stdev          2.629208                      
system.ruby.hit_latency_hist             |  3019295453     99.82%     99.82% |     1982648      0.07%     99.88% |        3063      0.00%     99.88% |     1194089      0.04%     99.92% |      712401      0.02%     99.95% |     1569126      0.05%    100.00% |       25600      0.00%    100.00% |         250      0.00%    100.00% |          86      0.00%    100.00% |           6      0.00%    100.00%
system.ruby.hit_latency_hist::total        3024782722                      
system.ruby.l0_cntrl0.Dcache.demand_hits    709499365                       # Number of cache demand hits
system.ruby.l0_cntrl0.Dcache.demand_misses      2174620                       # Number of cache demand misses
system.ruby.l0_cntrl0.Dcache.demand_accesses    711673985                       # Number of cache demand accesses
system.ruby.l0_cntrl0.Icache.demand_hits   2106824758                       # Number of cache demand hits
system.ruby.l0_cntrl0.Icache.demand_misses         5529                       # Number of cache demand misses
system.ruby.l0_cntrl0.Icache.demand_accesses   2106830287                       # Number of cache demand accesses
system.ruby.l0_cntrl0.Zcache.demand_hits    126113748                       # Number of cache demand hits
system.ruby.l0_cntrl0.Zcache.demand_misses      1640993                       # Number of cache demand misses
system.ruby.l0_cntrl0.Zcache.demand_accesses    127754741                       # Number of cache demand accesses
system.ruby.l0_cntrl1.Dcache.demand_hits     26831042                       # Number of cache demand hits
system.ruby.l0_cntrl1.Dcache.demand_misses      1802493                       # Number of cache demand misses
system.ruby.l0_cntrl1.Dcache.demand_accesses     28633535                       # Number of cache demand accesses
system.ruby.l0_cntrl1.Icache.demand_hits     74503501                       # Number of cache demand hits
system.ruby.l0_cntrl1.Icache.demand_misses         2189                       # Number of cache demand misses
system.ruby.l0_cntrl1.Icache.demand_accesses     74505690                       # Number of cache demand accesses
system.ruby.l0_cntrl1.Zcache.demand_hits       519230                       # Number of cache demand hits
system.ruby.l0_cntrl1.Zcache.demand_misses        13075                       # Number of cache demand misses
system.ruby.l0_cntrl1.Zcache.demand_accesses       532305                       # Number of cache demand accesses
system.ruby.l0_cntrl2.Dcache.demand_hits     26832263                       # Number of cache demand hits
system.ruby.l0_cntrl2.Dcache.demand_misses      1801272                       # Number of cache demand misses
system.ruby.l0_cntrl2.Dcache.demand_accesses     28633535                       # Number of cache demand accesses
system.ruby.l0_cntrl2.Icache.demand_hits     74503592                       # Number of cache demand hits
system.ruby.l0_cntrl2.Icache.demand_misses         2098                       # Number of cache demand misses
system.ruby.l0_cntrl2.Icache.demand_accesses     74505690                       # Number of cache demand accesses
system.ruby.l0_cntrl2.Zcache.demand_hits       422522                       # Number of cache demand hits
system.ruby.l0_cntrl2.Zcache.demand_misses        12903                       # Number of cache demand misses
system.ruby.l0_cntrl2.Zcache.demand_accesses       435425                       # Number of cache demand accesses
system.ruby.l1_cntrl0.cache.demand_hits           161                       # Number of cache demand hits
system.ruby.l1_cntrl0.cache.demand_misses      2179988                       # Number of cache demand misses
system.ruby.l1_cntrl0.cache.demand_accesses      2180149                       # Number of cache demand accesses
system.ruby.l1_cntrl0.zcache.demand_hits           74                       # Number of cache demand hits
system.ruby.l1_cntrl0.zcache.demand_misses       529525                       # Number of cache demand misses
system.ruby.l1_cntrl0.zcache.demand_accesses       529599                       # Number of cache demand accesses
system.ruby.l1_cntrl1.cache.demand_hits        151730                       # Number of cache demand hits
system.ruby.l1_cntrl1.cache.demand_misses      1652952                       # Number of cache demand misses
system.ruby.l1_cntrl1.cache.demand_accesses      1804682                       # Number of cache demand accesses
system.ruby.l1_cntrl1.zcache.demand_hits            0                       # Number of cache demand hits
system.ruby.l1_cntrl1.zcache.demand_misses            0                       # Number of cache demand misses
system.ruby.l1_cntrl1.zcache.demand_accesses            0                       # Number of cache demand accesses
system.ruby.l1_cntrl2.cache.demand_hits        149041                       # Number of cache demand hits
system.ruby.l1_cntrl2.cache.demand_misses      1654329                       # Number of cache demand misses
system.ruby.l1_cntrl2.cache.demand_accesses      1803370                       # Number of cache demand accesses
system.ruby.l1_cntrl2.zcache.demand_hits            0                       # Number of cache demand hits
system.ruby.l1_cntrl2.zcache.demand_misses            0                       # Number of cache demand misses
system.ruby.l1_cntrl2.zcache.demand_accesses            0                       # Number of cache demand accesses
system.ruby.l2_cntrl0.L2cache.demand_hits      1984088                       # Number of cache demand hits
system.ruby.l2_cntrl0.L2cache.demand_misses      3503181                       # Number of cache demand misses
system.ruby.l2_cntrl0.L2cache.demand_accesses      5487269                       # Number of cache demand accesses
system.ruby.l2_cntrl0.ZL2cache.demand_hits        15597                       # Number of cache demand hits
system.ruby.l2_cntrl0.ZL2cache.demand_misses       455024                       # Number of cache demand misses
system.ruby.l2_cntrl0.ZL2cache.demand_accesses       470621                       # Number of cache demand accesses
system.ruby.l2_cntrl0.fully_busy_cycles          1041                       # cycles for which number of transistions == max transitions
system.ruby.memctrl_clk_domain.clock             1500                       # Clock period in ticks
system.ruby.network.routers0.percent_links_utilized            0                      
system.ruby.network.routers1.percent_links_utilized            0                      
system.ruby.network.routers2.percent_links_utilized            0                      
system.ruby.network.routers3.percent_links_utilized     0.196801                      
system.ruby.network.routers3.msg_count.Control::0      2179988                      
system.ruby.network.routers3.msg_count.Request_Control::2       132038                      
system.ruby.network.routers3.msg_count.Response_Data::1      2180002                      
system.ruby.network.routers3.msg_count.Response_Control::1      2047323                      
system.ruby.network.routers3.msg_count.Response_Control::2      2179986                      
system.ruby.network.routers3.msg_count.Writeback_Data::0      2046806                      
system.ruby.network.routers3.msg_count.Writeback_Data::1       131893                      
system.ruby.network.routers3.msg_count.Writeback_Control::0          361                      
system.ruby.network.routers3.msg_bytes.Control::0     17439904                      
system.ruby.network.routers3.msg_bytes.Request_Control::2      1056304                      
system.ruby.network.routers3.msg_bytes.Response_Data::1    156960144                      
system.ruby.network.routers3.msg_bytes.Response_Control::1     16378584                      
system.ruby.network.routers3.msg_bytes.Response_Control::2     17439888                      
system.ruby.network.routers3.msg_bytes.Writeback_Data::0    147370032                      
system.ruby.network.routers3.msg_bytes.Writeback_Data::1      9496296                      
system.ruby.network.routers3.msg_bytes.Writeback_Control::0         2888                      
system.ruby.network.routers4.percent_links_utilized     0.095147                      
system.ruby.network.routers4.msg_count.Control::0      1652952                      
system.ruby.network.routers4.msg_count.Request_Control::2        38796                      
system.ruby.network.routers4.msg_count.Response_Data::1      1655671                      
system.ruby.network.routers4.msg_count.Response_Control::1      1615044                      
system.ruby.network.routers4.msg_count.Response_Control::2      1648587                      
system.ruby.network.routers4.msg_count.Writeback_Data::0        44893                      
system.ruby.network.routers4.msg_count.Writeback_Data::1        33433                      
system.ruby.network.routers4.msg_count.Writeback_Control::0      1566148                      
system.ruby.network.routers4.msg_bytes.Control::0     13223616                      
system.ruby.network.routers4.msg_bytes.Request_Control::2       310368                      
system.ruby.network.routers4.msg_bytes.Response_Data::1    119208312                      
system.ruby.network.routers4.msg_bytes.Response_Control::1     12920352                      
system.ruby.network.routers4.msg_bytes.Response_Control::2     13188696                      
system.ruby.network.routers4.msg_bytes.Writeback_Data::0      3232296                      
system.ruby.network.routers4.msg_bytes.Writeback_Data::1      2407176                      
system.ruby.network.routers4.msg_bytes.Writeback_Control::0     12529184                      
system.ruby.network.routers5.percent_links_utilized     0.094407                      
system.ruby.network.routers5.msg_count.Control::0      1654329                      
system.ruby.network.routers5.msg_count.Request_Control::2        17509                      
system.ruby.network.routers5.msg_count.Response_Data::1      1654709                      
system.ruby.network.routers5.msg_count.Response_Control::1      1629095                      
system.ruby.network.routers5.msg_count.Response_Control::2      1648171                      
system.ruby.network.routers5.msg_count.Writeback_Data::0        43772                      
system.ruby.network.routers5.msg_count.Writeback_Data::1        15191                      
system.ruby.network.routers5.msg_count.Writeback_Control::0      1583194                      
system.ruby.network.routers5.msg_bytes.Control::0     13234632                      
system.ruby.network.routers5.msg_bytes.Request_Control::2       140072                      
system.ruby.network.routers5.msg_bytes.Response_Data::1    119139048                      
system.ruby.network.routers5.msg_bytes.Response_Control::1     13032760                      
system.ruby.network.routers5.msg_bytes.Response_Control::2     13185368                      
system.ruby.network.routers5.msg_bytes.Writeback_Data::0      3151584                      
system.ruby.network.routers5.msg_bytes.Writeback_Data::1      1093752                      
system.ruby.network.routers5.msg_bytes.Writeback_Control::0     12665552                      
system.ruby.network.routers6.percent_links_utilized     0.624825                      
system.ruby.network.routers6.msg_count.Control::0      8988721                      
system.ruby.network.routers6.msg_count.Request_Control::2       186700                      
system.ruby.network.routers6.msg_count.Response_Data::1     10712512                      
system.ruby.network.routers6.msg_count.Response_Control::1     10250884                      
system.ruby.network.routers6.msg_count.Response_Control::2      5476744                      
system.ruby.network.routers6.msg_count.Writeback_Data::0      2135471                      
system.ruby.network.routers6.msg_count.Writeback_Data::1       180517                      
system.ruby.network.routers6.msg_count.Writeback_Control::0      3149703                      
system.ruby.network.routers6.msg_bytes.Control::0     71909768                      
system.ruby.network.routers6.msg_bytes.Request_Control::2      1493600                      
system.ruby.network.routers6.msg_bytes.Response_Data::1    771300864                      
system.ruby.network.routers6.msg_bytes.Response_Control::1     82007072                      
system.ruby.network.routers6.msg_bytes.Response_Control::2     43813952                      
system.ruby.network.routers6.msg_bytes.Writeback_Data::0    153753912                      
system.ruby.network.routers6.msg_bytes.Writeback_Data::1     12997224                      
system.ruby.network.routers6.msg_bytes.Writeback_Control::0     25197624                      
system.ruby.network.routers7.percent_links_utilized     0.238604                      
system.ruby.network.routers7.msg_count.Control::0      3501452                      
system.ruby.network.routers7.msg_count.Response_Data::1      5225426                      
system.ruby.network.routers7.msg_count.Response_Control::1      4959452                      
system.ruby.network.routers7.msg_bytes.Control::0     28011616                      
system.ruby.network.routers7.msg_bytes.Response_Data::1    376230672                      
system.ruby.network.routers7.msg_bytes.Response_Control::1     39675616                      
system.ruby.network.routers8.percent_links_utilized     0.156225                      
system.ruby.network.routers8.msg_count.Control::0      8988721                      
system.ruby.network.routers8.msg_count.Request_Control::2       188343                      
system.ruby.network.routers8.msg_count.Response_Data::1     10714241                      
system.ruby.network.routers8.msg_count.Response_Control::1     10250899                      
system.ruby.network.routers8.msg_count.Response_Control::2      5476744                      
system.ruby.network.routers8.msg_count.Writeback_Data::0      2135471                      
system.ruby.network.routers8.msg_count.Writeback_Data::1       180517                      
system.ruby.network.routers8.msg_count.Writeback_Control::0      3149703                      
system.ruby.network.routers8.msg_bytes.Control::0     71909768                      
system.ruby.network.routers8.msg_bytes.Request_Control::2      1506744                      
system.ruby.network.routers8.msg_bytes.Response_Data::1    771425352                      
system.ruby.network.routers8.msg_bytes.Response_Control::1     82007192                      
system.ruby.network.routers8.msg_bytes.Response_Control::2     43813952                      
system.ruby.network.routers8.msg_bytes.Writeback_Data::0    153753912                      
system.ruby.network.routers8.msg_bytes.Writeback_Data::1     12997224                      
system.ruby.network.routers8.msg_bytes.Writeback_Control::0     25197624                      
system.ruby.network.msg_count.Control        26966163                      
system.ruby.network.msg_count.Request_Control       563386                      
system.ruby.network.msg_count.Response_Data     32142561                      
system.ruby.network.msg_count.Response_Control     47182929                      
system.ruby.network.msg_count.Writeback_Data      6947964                      
system.ruby.network.msg_count.Writeback_Control      9449109                      
system.ruby.network.msg_byte.Control        215729304                      
system.ruby.network.msg_byte.Request_Control      4507088                      
system.ruby.network.msg_byte.Response_Data   2314264392                      
system.ruby.network.msg_byte.Response_Control    377463432                      
system.ruby.network.msg_byte.Writeback_Data    500253408                      
system.ruby.network.msg_byte.Writeback_Control     75592872                      
system.ruby.network.routers0.throttle0.link_utilization            0                      
system.ruby.network.routers0.throttle1.link_utilization            0                      
system.ruby.network.routers1.throttle0.link_utilization            0                      
system.ruby.network.routers1.throttle1.link_utilization            0                      
system.ruby.network.routers2.throttle0.link_utilization            0                      
system.ruby.network.routers2.throttle1.link_utilization            0                      
system.ruby.network.routers3.throttle0.link_utilization     0.187470                      
system.ruby.network.routers3.throttle0.msg_count.Request_Control::2       132038                      
system.ruby.network.routers3.throttle0.msg_count.Response_Data::1      2179976                      
system.ruby.network.routers3.throttle0.msg_count.Response_Control::1      2047192                      
system.ruby.network.routers3.throttle0.msg_bytes.Request_Control::2      1056304                      
system.ruby.network.routers3.throttle0.msg_bytes.Response_Data::1    156958272                      
system.ruby.network.routers3.throttle0.msg_bytes.Response_Control::1     16377536                      
system.ruby.network.routers3.throttle1.link_utilization     0.206132                      
system.ruby.network.routers3.throttle1.msg_count.Control::0      2179988                      
system.ruby.network.routers3.throttle1.msg_count.Response_Data::1           26                      
system.ruby.network.routers3.throttle1.msg_count.Response_Control::1          131                      
system.ruby.network.routers3.throttle1.msg_count.Response_Control::2      2179986                      
system.ruby.network.routers3.throttle1.msg_count.Writeback_Data::0      2046806                      
system.ruby.network.routers3.throttle1.msg_count.Writeback_Data::1       131893                      
system.ruby.network.routers3.throttle1.msg_count.Writeback_Control::0          361                      
system.ruby.network.routers3.throttle1.msg_bytes.Control::0     17439904                      
system.ruby.network.routers3.throttle1.msg_bytes.Response_Data::1         1872                      
system.ruby.network.routers3.throttle1.msg_bytes.Response_Control::1         1048                      
system.ruby.network.routers3.throttle1.msg_bytes.Response_Control::2     17439888                      
system.ruby.network.routers3.throttle1.msg_bytes.Writeback_Data::0    147370032                      
system.ruby.network.routers3.throttle1.msg_bytes.Writeback_Data::1      9496296                      
system.ruby.network.routers3.throttle1.msg_bytes.Writeback_Control::0         2888                      
system.ruby.network.routers4.throttle0.link_utilization     0.142126                      
system.ruby.network.routers4.throttle0.msg_count.Request_Control::2        38796                      
system.ruby.network.routers4.throttle0.msg_count.Response_Data::1      1652951                      
system.ruby.network.routers4.throttle0.msg_count.Response_Control::1      1611043                      
system.ruby.network.routers4.throttle0.msg_bytes.Request_Control::2       310368                      
system.ruby.network.routers4.throttle0.msg_bytes.Response_Data::1    119012472                      
system.ruby.network.routers4.throttle0.msg_bytes.Response_Control::1     12888344                      
system.ruby.network.routers4.throttle1.link_utilization     0.048169                      
system.ruby.network.routers4.throttle1.msg_count.Control::0      1652952                      
system.ruby.network.routers4.throttle1.msg_count.Response_Data::1         2720                      
system.ruby.network.routers4.throttle1.msg_count.Response_Control::1         4001                      
system.ruby.network.routers4.throttle1.msg_count.Response_Control::2      1648587                      
system.ruby.network.routers4.throttle1.msg_count.Writeback_Data::0        44893                      
system.ruby.network.routers4.throttle1.msg_count.Writeback_Data::1        33433                      
system.ruby.network.routers4.throttle1.msg_count.Writeback_Control::0      1566148                      
system.ruby.network.routers4.throttle1.msg_bytes.Control::0     13223616                      
system.ruby.network.routers4.throttle1.msg_bytes.Response_Data::1       195840                      
system.ruby.network.routers4.throttle1.msg_bytes.Response_Control::1        32008                      
system.ruby.network.routers4.throttle1.msg_bytes.Response_Control::2     13188696                      
system.ruby.network.routers4.throttle1.msg_bytes.Writeback_Data::0      3232296                      
system.ruby.network.routers4.throttle1.msg_bytes.Writeback_Data::1      2407176                      
system.ruby.network.routers4.throttle1.msg_bytes.Writeback_Control::0     12529184                      
system.ruby.network.routers5.throttle0.link_utilization     0.142186                      
system.ruby.network.routers5.throttle0.msg_count.Request_Control::2        17509                      
system.ruby.network.routers5.throttle0.msg_count.Response_Data::1      1654328                      
system.ruby.network.routers5.throttle0.msg_count.Response_Control::1      1626968                      
system.ruby.network.routers5.throttle0.msg_bytes.Request_Control::2       140072                      
system.ruby.network.routers5.throttle0.msg_bytes.Response_Data::1    119111616                      
system.ruby.network.routers5.throttle0.msg_bytes.Response_Control::1     13015744                      
system.ruby.network.routers5.throttle1.link_utilization     0.046628                      
system.ruby.network.routers5.throttle1.msg_count.Control::0      1654329                      
system.ruby.network.routers5.throttle1.msg_count.Response_Data::1          381                      
system.ruby.network.routers5.throttle1.msg_count.Response_Control::1         2127                      
system.ruby.network.routers5.throttle1.msg_count.Response_Control::2      1648171                      
system.ruby.network.routers5.throttle1.msg_count.Writeback_Data::0        43772                      
system.ruby.network.routers5.throttle1.msg_count.Writeback_Data::1        15191                      
system.ruby.network.routers5.throttle1.msg_count.Writeback_Control::0      1583194                      
system.ruby.network.routers5.throttle1.msg_bytes.Control::0     13234632                      
system.ruby.network.routers5.throttle1.msg_bytes.Response_Data::1        27432                      
system.ruby.network.routers5.throttle1.msg_bytes.Response_Control::1        17016                      
system.ruby.network.routers5.throttle1.msg_bytes.Response_Control::2     13185368                      
system.ruby.network.routers5.throttle1.msg_bytes.Writeback_Data::0      3151584                      
system.ruby.network.routers5.throttle1.msg_bytes.Writeback_Data::1      1093752                      
system.ruby.network.routers5.throttle1.msg_bytes.Writeback_Control::0     12665552                      
system.ruby.network.routers6.throttle0.link_utilization     0.600556                      
system.ruby.network.routers6.throttle0.msg_count.Control::0      5487269                      
system.ruby.network.routers6.throttle0.msg_count.Response_Data::1      3503012                      
system.ruby.network.routers6.throttle0.msg_count.Response_Control::1      3347957                      
system.ruby.network.routers6.throttle0.msg_count.Response_Control::2      5476744                      
system.ruby.network.routers6.throttle0.msg_count.Writeback_Data::0      2135471                      
system.ruby.network.routers6.throttle0.msg_count.Writeback_Data::1       180517                      
system.ruby.network.routers6.throttle0.msg_count.Writeback_Control::0      3149703                      
system.ruby.network.routers6.throttle0.msg_bytes.Control::0     43898152                      
system.ruby.network.routers6.throttle0.msg_bytes.Response_Data::1    252216864                      
system.ruby.network.routers6.throttle0.msg_bytes.Response_Control::1     26783656                      
system.ruby.network.routers6.throttle0.msg_bytes.Response_Control::2     43813952                      
system.ruby.network.routers6.throttle0.msg_bytes.Writeback_Data::0    153753912                      
system.ruby.network.routers6.throttle0.msg_bytes.Writeback_Data::1     12997224                      
system.ruby.network.routers6.throttle0.msg_bytes.Writeback_Control::0     25197624                      
system.ruby.network.routers6.throttle1.link_utilization     0.649093                      
system.ruby.network.routers6.throttle1.msg_count.Control::0      3501452                      
system.ruby.network.routers6.throttle1.msg_count.Request_Control::2       186700                      
system.ruby.network.routers6.throttle1.msg_count.Response_Data::1      7209500                      
system.ruby.network.routers6.throttle1.msg_count.Response_Control::1      6902927                      
system.ruby.network.routers6.throttle1.msg_bytes.Control::0     28011616                      
system.ruby.network.routers6.throttle1.msg_bytes.Request_Control::2      1493600                      
system.ruby.network.routers6.throttle1.msg_bytes.Response_Data::1    519084000                      
system.ruby.network.routers6.throttle1.msg_bytes.Response_Control::1     55223416                      
system.ruby.network.routers7.throttle0.link_utilization     0.177459                      
system.ruby.network.routers7.throttle0.msg_count.Control::0      3501452                      
system.ruby.network.routers7.throttle0.msg_count.Response_Data::1      1723974                      
system.ruby.network.routers7.throttle0.msg_count.Response_Control::1      1617739                      
system.ruby.network.routers7.throttle0.msg_bytes.Control::0     28011616                      
system.ruby.network.routers7.throttle0.msg_bytes.Response_Data::1    124126128                      
system.ruby.network.routers7.throttle0.msg_bytes.Response_Control::1     12941912                      
system.ruby.network.routers7.throttle1.link_utilization     0.299749                      
system.ruby.network.routers7.throttle1.msg_count.Response_Data::1      3501452                      
system.ruby.network.routers7.throttle1.msg_count.Response_Control::1      3341713                      
system.ruby.network.routers7.throttle1.msg_bytes.Response_Data::1    252104544                      
system.ruby.network.routers7.throttle1.msg_bytes.Response_Control::1     26733704                      
system.ruby.network.routers8.throttle0.link_utilization            0                      
system.ruby.network.routers8.throttle1.link_utilization            0                      
system.ruby.network.routers8.throttle2.link_utilization            0                      
system.ruby.network.routers8.throttle3.link_utilization     0.187470                      
system.ruby.network.routers8.throttle3.msg_count.Request_Control::2       132038                      
system.ruby.network.routers8.throttle3.msg_count.Response_Data::1      2179976                      
system.ruby.network.routers8.throttle3.msg_count.Response_Control::1      2047192                      
system.ruby.network.routers8.throttle3.msg_bytes.Request_Control::2      1056304                      
system.ruby.network.routers8.throttle3.msg_bytes.Response_Data::1    156958272                      
system.ruby.network.routers8.throttle3.msg_bytes.Response_Control::1     16377536                      
system.ruby.network.routers8.throttle4.link_utilization     0.142126                      
system.ruby.network.routers8.throttle4.msg_count.Request_Control::2        38796                      
system.ruby.network.routers8.throttle4.msg_count.Response_Data::1      1652951                      
system.ruby.network.routers8.throttle4.msg_count.Response_Control::1      1611043                      
system.ruby.network.routers8.throttle4.msg_bytes.Request_Control::2       310368                      
system.ruby.network.routers8.throttle4.msg_bytes.Response_Data::1    119012472                      
system.ruby.network.routers8.throttle4.msg_bytes.Response_Control::1     12888344                      
system.ruby.network.routers8.throttle5.link_utilization     0.142186                      
system.ruby.network.routers8.throttle5.msg_count.Request_Control::2        17509                      
system.ruby.network.routers8.throttle5.msg_count.Response_Data::1      1654328                      
system.ruby.network.routers8.throttle5.msg_count.Response_Control::1      1626968                      
system.ruby.network.routers8.throttle5.msg_bytes.Request_Control::2       140072                      
system.ruby.network.routers8.throttle5.msg_bytes.Response_Data::1    119111616                      
system.ruby.network.routers8.throttle5.msg_bytes.Response_Control::1     13015744                      
system.ruby.network.routers8.throttle6.link_utilization     0.600556                      
system.ruby.network.routers8.throttle6.msg_count.Control::0      5487269                      
system.ruby.network.routers8.throttle6.msg_count.Response_Data::1      3503012                      
system.ruby.network.routers8.throttle6.msg_count.Response_Control::1      3347957                      
system.ruby.network.routers8.throttle6.msg_count.Response_Control::2      5476744                      
system.ruby.network.routers8.throttle6.msg_count.Writeback_Data::0      2135471                      
system.ruby.network.routers8.throttle6.msg_count.Writeback_Data::1       180517                      
system.ruby.network.routers8.throttle6.msg_count.Writeback_Control::0      3149703                      
system.ruby.network.routers8.throttle6.msg_bytes.Control::0     43898152                      
system.ruby.network.routers8.throttle6.msg_bytes.Response_Data::1    252216864                      
system.ruby.network.routers8.throttle6.msg_bytes.Response_Control::1     26783656                      
system.ruby.network.routers8.throttle6.msg_bytes.Response_Control::2     43813952                      
system.ruby.network.routers8.throttle6.msg_bytes.Writeback_Data::0    153753912                      
system.ruby.network.routers8.throttle6.msg_bytes.Writeback_Data::1     12997224                      
system.ruby.network.routers8.throttle6.msg_bytes.Writeback_Control::0     25197624                      
system.ruby.network.routers8.throttle7.link_utilization     0.177459                      
system.ruby.network.routers8.throttle7.msg_count.Control::0      3501452                      
system.ruby.network.routers8.throttle7.msg_count.Response_Data::1      1723974                      
system.ruby.network.routers8.throttle7.msg_count.Response_Control::1      1617739                      
system.ruby.network.routers8.throttle7.msg_bytes.Control::0     28011616                      
system.ruby.network.routers8.throttle7.msg_bytes.Response_Data::1    124126128                      
system.ruby.network.routers8.throttle7.msg_bytes.Response_Control::1     12941912                      
system.ruby.delayVCHist.vnet_0::bucket_size           16                       # delay histogram for vnet_0
system.ruby.delayVCHist.vnet_0::max_bucket          159                       # delay histogram for vnet_0
system.ruby.delayVCHist.vnet_0::samples      16249187                       # delay histogram for vnet_0
system.ruby.delayVCHist.vnet_0::mean         1.076297                       # delay histogram for vnet_0
system.ruby.delayVCHist.vnet_0::stdev        2.730927                       # delay histogram for vnet_0
system.ruby.delayVCHist.vnet_0           |    16247053     99.99%     99.99% |        2114      0.01%    100.00% |          10      0.00%    100.00% |           8      0.00%    100.00% |           1      0.00%    100.00% |           1      0.00%    100.00% |           0      0.00%    100.00% |           0      0.00%    100.00% |           0      0.00%    100.00% |           0      0.00%    100.00% # delay histogram for vnet_0
system.ruby.delayVCHist.vnet_0::total        16249187                       # delay histogram for vnet_0
system.ruby.delayVCHist.vnet_1::bucket_size            2                       # delay histogram for vnet_1
system.ruby.delayVCHist.vnet_1::max_bucket           19                       # delay histogram for vnet_1
system.ruby.delayVCHist.vnet_1::samples      23592145                       # delay histogram for vnet_1
system.ruby.delayVCHist.vnet_1::mean         0.014889                       # delay histogram for vnet_1
system.ruby.delayVCHist.vnet_1::stdev        0.290327                       # delay histogram for vnet_1
system.ruby.delayVCHist.vnet_1           |    23512645     99.66%     99.66% |       29915      0.13%     99.79% |       21299      0.09%     99.88% |       10361      0.04%     99.92% |       17662      0.07%    100.00% |         235      0.00%    100.00% |           6      0.00%    100.00% |           0      0.00%    100.00% |          22      0.00%    100.00% |           0      0.00%    100.00% # delay histogram for vnet_1
system.ruby.delayVCHist.vnet_1::total        23592145                       # delay histogram for vnet_1
system.ruby.delayVCHist.vnet_2::bucket_size            2                       # delay histogram for vnet_2
system.ruby.delayVCHist.vnet_2::max_bucket           19                       # delay histogram for vnet_2
system.ruby.delayVCHist.vnet_2::samples        307121                       # delay histogram for vnet_2
system.ruby.delayVCHist.vnet_2::mean         0.123287                       # delay histogram for vnet_2
system.ruby.delayVCHist.vnet_2::stdev        0.776670                       # delay histogram for vnet_2
system.ruby.delayVCHist.vnet_2           |      299553     97.54%     97.54% |           8      0.00%     97.54% |        7552      2.46%    100.00% |           4      0.00%    100.00% |           0      0.00%    100.00% |           0      0.00%    100.00% |           0      0.00%    100.00% |           4      0.00%    100.00% |           0      0.00%    100.00% |           0      0.00%    100.00% # delay histogram for vnet_2
system.ruby.delayVCHist.vnet_2::total          307121                       # delay histogram for vnet_2
system.ruby.LD.latency_hist::bucket_size           16                      
system.ruby.LD.latency_hist::max_bucket           159                      
system.ruby.LD.latency_hist::samples        439884389                      
system.ruby.LD.latency_hist::mean            1.285468                      
system.ruby.LD.latency_hist::gmean           1.027713                      
system.ruby.LD.latency_hist::stdev           3.757355                      
system.ruby.LD.latency_hist              |   436589428     99.25%     99.25% |     1973707      0.45%     99.70% |        3031      0.00%     99.70% |     1126465      0.26%     99.96% |      112456      0.03%     99.98% |       77362      0.02%    100.00% |        1706      0.00%    100.00% |         146      0.00%    100.00% |          82      0.00%    100.00% |           6      0.00%    100.00%
system.ruby.LD.latency_hist::total          439884389                      
system.ruby.LD.hit_latency_hist::bucket_size           16                      
system.ruby.LD.hit_latency_hist::max_bucket          159                      
system.ruby.LD.hit_latency_hist::samples    439884389                      
system.ruby.LD.hit_latency_hist::mean        1.285468                      
system.ruby.LD.hit_latency_hist::gmean       1.027713                      
system.ruby.LD.hit_latency_hist::stdev       3.757355                      
system.ruby.LD.hit_latency_hist          |   436589428     99.25%     99.25% |     1973707      0.45%     99.70% |        3031      0.00%     99.70% |     1126465      0.26%     99.96% |      112456      0.03%     99.98% |       77362      0.02%    100.00% |        1706      0.00%    100.00% |         146      0.00%    100.00% |          82      0.00%    100.00% |           6      0.00%    100.00%
system.ruby.LD.hit_latency_hist::total      439884389                      
system.ruby.ST.latency_hist::bucket_size           16                      
system.ruby.ST.latency_hist::max_bucket           159                      
system.ruby.ST.latency_hist::samples        227619648                      
system.ruby.ST.latency_hist::mean            1.779716                      
system.ruby.ST.latency_hist::gmean           1.043105                      
system.ruby.ST.latency_hist::stdev           7.993416                      
system.ruby.ST.latency_hist              |   225437190     99.04%     99.04% |         846      0.00%     99.04% |           6      0.00%     99.04% |       66286      0.03%     99.07% |      599842      0.26%     99.33% |     1491482      0.66%     99.99% |       23889      0.01%    100.00% |         103      0.00%    100.00% |           4      0.00%    100.00% |           0      0.00%    100.00%
system.ruby.ST.latency_hist::total          227619648                      
system.ruby.ST.hit_latency_hist::bucket_size           16                      
system.ruby.ST.hit_latency_hist::max_bucket          159                      
system.ruby.ST.hit_latency_hist::samples    227619648                      
system.ruby.ST.hit_latency_hist::mean        1.779716                      
system.ruby.ST.hit_latency_hist::gmean       1.043105                      
system.ruby.ST.hit_latency_hist::stdev       7.993416                      
system.ruby.ST.hit_latency_hist          |   225437190     99.04%     99.04% |         846      0.00%     99.04% |           6      0.00%     99.04% |       66286      0.03%     99.07% |      599842      0.26%     99.33% |     1491482      0.66%     99.99% |       23889      0.01%    100.00% |         103      0.00%    100.00% |           4      0.00%    100.00% |           0      0.00%    100.00%
system.ruby.ST.hit_latency_hist::total      227619648                      
system.ruby.IFETCH.latency_hist::bucket_size           16                      
system.ruby.IFETCH.latency_hist::max_bucket          159                      
system.ruby.IFETCH.latency_hist::samples   2255841667                      
system.ruby.IFETCH.latency_hist::mean        1.000129                      
system.ruby.IFETCH.latency_hist::gmean       1.000014                      
system.ruby.IFETCH.latency_hist::stdev       0.072029                      
system.ruby.IFETCH.latency_hist          |  2255831917    100.00%    100.00% |        8012      0.00%    100.00% |          25      0.00%    100.00% |        1331      0.00%    100.00% |         103      0.00%    100.00% |         274      0.00%    100.00% |           5      0.00%    100.00% |           0      0.00%    100.00% |           0      0.00%    100.00% |           0      0.00%    100.00%
system.ruby.IFETCH.latency_hist::total     2255841667                      
system.ruby.IFETCH.hit_latency_hist::bucket_size           16                      
system.ruby.IFETCH.hit_latency_hist::max_bucket          159                      
system.ruby.IFETCH.hit_latency_hist::samples   2255841667                      
system.ruby.IFETCH.hit_latency_hist::mean     1.000129                      
system.ruby.IFETCH.hit_latency_hist::gmean     1.000014                      
system.ruby.IFETCH.hit_latency_hist::stdev     0.072029                      
system.ruby.IFETCH.hit_latency_hist      |  2255831917    100.00%    100.00% |        8012      0.00%    100.00% |          25      0.00%    100.00% |        1331      0.00%    100.00% |         103      0.00%    100.00% |         274      0.00%    100.00% |           5      0.00%    100.00% |           0      0.00%    100.00% |           0      0.00%    100.00% |           0      0.00%    100.00%
system.ruby.IFETCH.hit_latency_hist::total   2255841667                      
system.ruby.RMW_Read.latency_hist::bucket_size            8                      
system.ruby.RMW_Read.latency_hist::max_bucket           79                      
system.ruby.RMW_Read.latency_hist::samples          452                      
system.ruby.RMW_Read.latency_hist::mean      1.984513                      
system.ruby.RMW_Read.latency_hist::gmean     1.105525                      
system.ruby.RMW_Read.latency_hist::stdev     6.580036                      
system.ruby.RMW_Read.latency_hist        |         440     97.35%     97.35% |           0      0.00%     97.35% |           4      0.88%     98.23% |           4      0.88%     99.12% |           0      0.00%     99.12% |           0      0.00%     99.12% |           0      0.00%     99.12% |           4      0.88%    100.00% |           0      0.00%    100.00% |           0      0.00%    100.00%
system.ruby.RMW_Read.latency_hist::total          452                      
system.ruby.RMW_Read.hit_latency_hist::bucket_size            8                      
system.ruby.RMW_Read.hit_latency_hist::max_bucket           79                      
system.ruby.RMW_Read.hit_latency_hist::samples          452                      
system.ruby.RMW_Read.hit_latency_hist::mean     1.984513                      
system.ruby.RMW_Read.hit_latency_hist::gmean     1.105525                      
system.ruby.RMW_Read.hit_latency_hist::stdev     6.580036                      
system.ruby.RMW_Read.hit_latency_hist    |         440     97.35%     97.35% |           0      0.00%     97.35% |           4      0.88%     98.23% |           4      0.88%     99.12% |           0      0.00%     99.12% |           0      0.00%     99.12% |           0      0.00%     99.12% |           4      0.88%    100.00% |           0      0.00%    100.00% |           0      0.00%    100.00%
system.ruby.RMW_Read.hit_latency_hist::total          452                      
system.ruby.Locked_RMW_Read.latency_hist::bucket_size           16                      
system.ruby.Locked_RMW_Read.latency_hist::max_bucket          159                      
system.ruby.Locked_RMW_Read.latency_hist::samples     50718283                      
system.ruby.Locked_RMW_Read.latency_hist::mean     1.000060                      
system.ruby.Locked_RMW_Read.latency_hist::gmean     1.000008                      
system.ruby.Locked_RMW_Read.latency_hist::stdev     0.050096                      
system.ruby.Locked_RMW_Read.latency_hist |    50718195    100.00%    100.00% |          75      0.00%    100.00% |           1      0.00%    100.00% |           3      0.00%    100.00% |           0      0.00%    100.00% |           8      0.00%    100.00% |           0      0.00%    100.00% |           1      0.00%    100.00% |           0      0.00%    100.00% |           0      0.00%    100.00%
system.ruby.Locked_RMW_Read.latency_hist::total     50718283                      
system.ruby.Locked_RMW_Read.hit_latency_hist::bucket_size           16                      
system.ruby.Locked_RMW_Read.hit_latency_hist::max_bucket          159                      
system.ruby.Locked_RMW_Read.hit_latency_hist::samples     50718283                      
system.ruby.Locked_RMW_Read.hit_latency_hist::mean     1.000060                      
system.ruby.Locked_RMW_Read.hit_latency_hist::gmean     1.000008                      
system.ruby.Locked_RMW_Read.hit_latency_hist::stdev     0.050096                      
system.ruby.Locked_RMW_Read.hit_latency_hist |    50718195    100.00%    100.00% |          75      0.00%    100.00% |           1      0.00%    100.00% |           3      0.00%    100.00% |           0      0.00%    100.00% |           8      0.00%    100.00% |           0      0.00%    100.00% |           1      0.00%    100.00% |           0      0.00%    100.00% |           0      0.00%    100.00%
system.ruby.Locked_RMW_Read.hit_latency_hist::total     50718283                      
system.ruby.Locked_RMW_Write.latency_hist::bucket_size            1                      
system.ruby.Locked_RMW_Write.latency_hist::max_bucket            9                      
system.ruby.Locked_RMW_Write.latency_hist::samples     50718283                      
system.ruby.Locked_RMW_Write.latency_hist::mean            1                      
system.ruby.Locked_RMW_Write.latency_hist::gmean            1                      
system.ruby.Locked_RMW_Write.latency_hist |           0      0.00%      0.00% |    50718283    100.00%    100.00% |           0      0.00%    100.00% |           0      0.00%    100.00% |           0      0.00%    100.00% |           0      0.00%    100.00% |           0      0.00%    100.00% |           0      0.00%    100.00% |           0      0.00%    100.00% |           0      0.00%    100.00%
system.ruby.Locked_RMW_Write.latency_hist::total     50718283                      
system.ruby.Locked_RMW_Write.hit_latency_hist::bucket_size            1                      
system.ruby.Locked_RMW_Write.hit_latency_hist::max_bucket            9                      
system.ruby.Locked_RMW_Write.hit_latency_hist::samples     50718283                      
system.ruby.Locked_RMW_Write.hit_latency_hist::mean            1                      
system.ruby.Locked_RMW_Write.hit_latency_hist::gmean            1                      
system.ruby.Locked_RMW_Write.hit_latency_hist |           0      0.00%      0.00% |    50718283    100.00%    100.00% |           0      0.00%    100.00% |           0      0.00%    100.00% |           0      0.00%    100.00% |           0      0.00%    100.00% |           0      0.00%    100.00% |           0      0.00%    100.00% |           0      0.00%    100.00% |           0      0.00%    100.00%
system.ruby.Locked_RMW_Write.hit_latency_hist::total     50718283                      
system.ruby.Directory_Controller.Fetch        3501452      0.00%      0.00%
system.ruby.Directory_Controller.Data         1723974      0.00%      0.00%
system.ruby.Directory_Controller.Memory_Data      3501452      0.00%      0.00%
system.ruby.Directory_Controller.Memory_Ack      1723974      0.00%      0.00%
system.ruby.Directory_Controller.CleanReplacement      1617739      0.00%      0.00%
system.ruby.Directory_Controller.I.Fetch      3501452      0.00%      0.00%
system.ruby.Directory_Controller.M.Data       1723974      0.00%      0.00%
system.ruby.Directory_Controller.M.CleanReplacement      1617739      0.00%      0.00%
system.ruby.Directory_Controller.IM.Memory_Data      3501452      0.00%      0.00%
system.ruby.Directory_Controller.MI.Memory_Ack      1723974      0.00%      0.00%
system.ruby.L0Cache_Controller.Load      |   382941095     87.05%     87.05% |    28471647      6.47%     93.53% |    28471647      6.47%    100.00%
system.ruby.L0Cache_Controller.Load::total    439884389                      
system.ruby.L0Cache_Controller.Ifetch    |  2106830287     93.39%     93.39% |    74505690      3.30%     96.70% |    74505690      3.30%    100.00%
system.ruby.L0Cache_Controller.Ifetch::total   2255841667                      
system.ruby.L0Cache_Controller.Store     |   328732890     99.90%     99.90% |      161888      0.05%     99.95% |      161888      0.05%    100.00%
system.ruby.L0Cache_Controller.Store::total    329056666                      
system.ruby.L0Cache_Controller.Inv       |       11052      9.30%      9.30% |       54809     46.14%     55.45% |       52917     44.55%    100.00%
system.ruby.L0Cache_Controller.Inv::total       118778                      
system.ruby.L0Cache_Controller.L0_Replacement |     2168382     38.24%     38.24% |     1751038     30.88%     69.12% |     1751197     30.88%    100.00%
system.ruby.L0Cache_Controller.L0_Replacement::total      5670617                      
system.ruby.L0Cache_Controller.Data      |          23      0.17%      0.17% |        5730     42.62%     42.79% |        7692     57.21%    100.00%
system.ruby.L0Cache_Controller.Data::total        13445                      
system.ruby.L0Cache_Controller.Data_Exclusive |     2180126     37.75%     37.75% |     1798952     31.15%     68.90% |     1795678     31.10%    100.00%
system.ruby.L0Cache_Controller.Data_Exclusive::total      5774756                      
system.ruby.L0Cache_Controller.NP.Load   |        2257      0.06%      0.06% |     1797380     49.99%     50.05% |     1796106     49.95%    100.00%
system.ruby.L0Cache_Controller.NP.Load::total      3595743                      
system.ruby.L0Cache_Controller.NP.Ifetch |        5529     56.33%     56.33% |        2189     22.30%     78.63% |        2098     21.37%    100.00%
system.ruby.L0Cache_Controller.NP.Ifetch::total         9816                      
system.ruby.L0Cache_Controller.NP.Store  |     2172351     99.53%     99.53% |        5112      0.23%     99.76% |        5165      0.24%    100.00%
system.ruby.L0Cache_Controller.NP.Store::total      2182628                      
system.ruby.L0Cache_Controller.NP.Inv    |           0      0.00%      0.00% |        1269     47.72%     47.72% |        1390     52.28%    100.00%
system.ruby.L0Cache_Controller.NP.Inv::total         2659                      
system.ruby.L0Cache_Controller.S.Load    |     8738762     54.44%     54.44% |     3289013     20.49%     74.93% |     4023500     25.07%    100.00%
system.ruby.L0Cache_Controller.S.Load::total     16051275                      
system.ruby.L0Cache_Controller.S.Ifetch  |          48      0.00%      0.00% |    74503140     50.00%     50.00% |    74503326     50.00%    100.00%
[...]
system.ruby.L1Cache_Controller.WriteBack::total      5667914                      
system.ruby.L1Cache_Controller.L0_DataAck |        5762     34.83%     34.83% |        5404     32.67%     67.50% |        5377     32.50%    100.00%
system.ruby.L1Cache_Controller.L0_DataAck::total        16543                      
system.ruby.L1Cache_Controller.Inv       |      132024     70.69%     70.69% |       37434     20.04%     90.73% |       17318      9.27%    100.00%
system.ruby.L1Cache_Controller.Inv::total       186776                      
system.ruby.L1Cache_Controller.L0_Invalidate_Own |       19438      8.74%      8.74% |      100768     45.30%     54.04% |      102222     45.96%    100.00%
system.ruby.L1Cache_Controller.L0_Invalidate_Own::total       222428                      
system.ruby.L1Cache_Controller.L0_Invalidate_Else |        2666     17.62%     17.62% |        8850     58.50%     76.12% |        3612     23.88%    100.00%
system.ruby.L1Cache_Controller.L0_Invalidate_Else::total        15128                      
system.ruby.L1Cache_Controller.L1_Replacement |     2047167     38.64%     38.64% |     1616687     30.51%     69.15% |     1634402     30.85%    100.00%
system.ruby.L1Cache_Controller.L1_Replacement::total      5298256                      
system.ruby.L1Cache_Controller.Fwd_GETX  |           2     28.57%     28.57% |           4     57.14%     85.71% |           1     14.29%    100.00%
system.ruby.L1Cache_Controller.Fwd_GETX::total            7                      
system.ruby.L1Cache_Controller.Fwd_GETS  |          12      0.77%      0.77% |        1358     87.05%     87.82% |         190     12.18%    100.00%
system.ruby.L1Cache_Controller.Fwd_GETS::total         1560                      
system.ruby.L1Cache_Controller.Data_Exclusive |        7687      0.23%      0.23% |     1643294     49.91%     50.14% |     1641645     49.86%    100.00%
system.ruby.L1Cache_Controller.Data_Exclusive::total      3292626                      
system.ruby.L1Cache_Controller.DataS_fromL1 |          18      1.15%      1.15% |         181     11.60%     12.76% |        1361     87.24%    100.00%
system.ruby.L1Cache_Controller.DataS_fromL1::total         1560                      
system.ruby.L1Cache_Controller.Data_all_Acks |     2172271     99.05%     99.05% |        9476      0.43%     99.48% |       11322      0.52%    100.00%
system.ruby.L1Cache_Controller.Data_all_Acks::total      2193069                      
system.ruby.L1Cache_Controller.L0_Ack    |        5290      5.17%      5.17% |       49405     48.32%     53.50% |       47540     46.50%    100.00%
system.ruby.L1Cache_Controller.L0_Ack::total       102235                      
system.ruby.L1Cache_Controller.Ack       |          13     86.67%     86.67% |           1      6.67%     93.33% |           1      6.67%    100.00%
system.ruby.L1Cache_Controller.Ack::total           15                      
system.ruby.L1Cache_Controller.Ack_all   |          12     85.71%     85.71% |           1      7.14%     92.86% |           1      7.14%    100.00%
system.ruby.L1Cache_Controller.Ack_all::total           14                      
system.ruby.L1Cache_Controller.WB_Ack    |     2047167     38.73%     38.73% |     1611041     30.48%     69.22% |     1626966     30.78%    100.00%
system.ruby.L1Cache_Controller.WB_Ack::total      5285174                      
system.ruby.L1Cache_Controller.NP.Load   |        7707      0.23%      0.23% |     1647840     49.86%     50.10% |     1649164     49.90%    100.00%
system.ruby.L1Cache_Controller.NP.Load::total      3304711                      
system.ruby.L1Cache_Controller.NP.Store  |     2172269     99.53%     99.53% |        5111      0.23%     99.76% |        5164      0.24%    100.00%
system.ruby.L1Cache_Controller.NP.Store::total      2182544                      
system.ruby.L1Cache_Controller.NP.Inv    |           0      0.00%      0.00% |        1441     50.07%     50.07% |        1437     49.93%    100.00%
system.ruby.L1Cache_Controller.NP.Inv::total         2878                      
system.ruby.L1Cache_Controller.I.L1_Replacement |           0      0.00%      0.00% |           2    100.00%    100.00% |           0      0.00%    100.00%
system.ruby.L1Cache_Controller.I.L1_Replacement::total            2                      
system.ruby.L1Cache_Controller.S.Load    |           1    100.00%    100.00% |           0      0.00%    100.00% |           0      0.00%    100.00%
system.ruby.L1Cache_Controller.S.Load::total            1                      
system.ruby.L1Cache_Controller.S.Store   |          12     85.71%     85.71% |           1      7.14%     92.86% |           1      7.14%    100.00%
system.ruby.L1Cache_Controller.S.Store::total           14                      
system.ruby.L1Cache_Controller.S.L0_Invalidate_Own |           0      0.00%      0.00% |        5534     42.67%     42.67% |        7436     57.33%    100.00%
system.ruby.L1Cache_Controller.S.L0_Invalidate_Own::total        12970                      
system.ruby.L1Cache_Controller.S.L0_Invalidate_Else |           3      0.77%      0.77% |         190     48.59%     49.36% |         198     50.64%    100.00%
system.ruby.L1Cache_Controller.S.L0_Invalidate_Else::total          391                      
system.ruby.L1Cache_Controller.SS.Load   |           2      0.15%      0.15% |        1184     87.12%     87.27% |         173     12.73%    100.00%
system.ruby.L1Cache_Controller.SS.Load::total         1359                      
system.ruby.L1Cache_Controller.SS.Inv    |          13      3.13%      3.13% |         193     46.51%     49.64% |         209     50.36%    100.00%
system.ruby.L1Cache_Controller.SS.Inv::total          415                      
system.ruby.L1Cache_Controller.SS.L1_Replacement |           0      0.00%      0.00% |        5644     43.15%     43.15% |        7436     56.85%    100.00%
system.ruby.L1Cache_Controller.SS.L1_Replacement::total        13080                      
system.ruby.L1Cache_Controller.E.WriteBack |         531      0.02%      0.02% |     1599680     49.97%     49.98% |     1601189     50.02%    100.00%
system.ruby.L1Cache_Controller.E.WriteBack::total      3201400                      
system.ruby.L1Cache_Controller.E.L0_Invalidate_Own |        6406      7.47%      7.47% |       40025     46.69%     54.16% |       39296     45.84%    100.00%
system.ruby.L1Cache_Controller.E.L0_Invalidate_Own::total        85727                      
system.ruby.L1Cache_Controller.E.L0_Invalidate_Else |         140      3.20%      3.20% |        3579     81.71%     84.91% |         661     15.09%    100.00%
system.ruby.L1Cache_Controller.E.L0_Invalidate_Else::total         4380                      
system.ruby.L1Cache_Controller.EE.Load   |           1     25.00%     25.00% |           3     75.00%    100.00% |           0      0.00%    100.00%
system.ruby.L1Cache_Controller.EE.Load::total            4                      
system.ruby.L1Cache_Controller.EE.Inv    |         118      3.98%      3.98% |        2367     79.80%     83.78% |         481     16.22%    100.00%
system.ruby.L1Cache_Controller.EE.Inv::total         2966                      
system.ruby.L1Cache_Controller.EE.L1_Replacement |        5125      6.13%      6.13% |       39603     47.38%     53.51% |       38861     46.49%    100.00%
system.ruby.L1Cache_Controller.EE.L1_Replacement::total        83589                      
system.ruby.L1Cache_Controller.EE.Fwd_GETX |           2     50.00%     50.00% |           1     25.00%     75.00% |           1     25.00%    100.00%
system.ruby.L1Cache_Controller.EE.Fwd_GETX::total            4                      
system.ruby.L1Cache_Controller.EE.Fwd_GETS |           4      0.29%      0.29% |        1208     86.84%     87.13% |         179     12.87%    100.00%
system.ruby.L1Cache_Controller.EE.Fwd_GETS::total         1391                      
system.ruby.L1Cache_Controller.M.WriteBack |     2167846     87.89%     87.89% |      150089      6.09%     93.98% |      148579      6.02%    100.00%
system.ruby.L1Cache_Controller.M.WriteBack::total      2466514                      
system.ruby.L1Cache_Controller.M.L0_Invalidate_Own |        3313     26.47%     26.47% |        4825     38.55%     65.02% |        4379     34.98%    100.00%
system.ruby.L1Cache_Controller.M.L0_Invalidate_Own::total        12517                      
system.ruby.L1Cache_Controller.M.L0_Invalidate_Else |        1190     42.61%     42.61% |         656     23.49%     66.09% |         947     33.91%    100.00%
system.ruby.L1Cache_Controller.M.L0_Invalidate_Else::total         2793                      
system.ruby.L1Cache_Controller.MM.Load   |          75      0.03%      0.03% |      150542     50.27%     50.29% |      148867     49.71%    100.00%
system.ruby.L1Cache_Controller.MM.Load::total       299484                      
system.ruby.L1Cache_Controller.MM.Store  |          82     97.62%     97.62% |           1      1.19%     98.81% |           1      1.19%    100.00%
system.ruby.L1Cache_Controller.MM.Store::total           84                      
system.ruby.L1Cache_Controller.MM.Inv    |      131893     73.06%     73.06% |       33432     18.52%     91.58% |       15191      8.42%    100.00%
system.ruby.L1Cache_Controller.MM.Inv::total       180516                      
system.ruby.L1Cache_Controller.MM.L1_Replacement |     2042042     39.26%     39.26% |     1571438     30.21%     69.47% |     1588105     30.53%    100.00%
system.ruby.L1Cache_Controller.MM.L1_Replacement::total      5201585                      
system.ruby.L1Cache_Controller.MM.Fwd_GETX |           0      0.00%      0.00% |           3    100.00%    100.00% |           0      0.00%    100.00%
system.ruby.L1Cache_Controller.MM.Fwd_GETX::total            3                      
system.ruby.L1Cache_Controller.MM.Fwd_GETS |           8      4.73%      4.73% |         150     88.76%     93.49% |          11      6.51%    100.00%
system.ruby.L1Cache_Controller.MM.Fwd_GETS::total          169                      
system.ruby.L1Cache_Controller.IS.Data_Exclusive |        7687      0.23%      0.23% |     1643294     49.91%     50.14% |     1641645     49.86%    100.00%
system.ruby.L1Cache_Controller.IS.Data_Exclusive::total      3292626                      
system.ruby.L1Cache_Controller.IS.DataS_fromL1 |          18      1.15%      1.15% |         181     11.60%     12.76% |        1361     87.24%    100.00%
system.ruby.L1Cache_Controller.IS.DataS_fromL1::total         1560                      
system.ruby.L1Cache_Controller.IS.Data_all_Acks |           2      0.02%      0.02% |        4365     41.47%     41.49% |        6158     58.51%    100.00%
system.ruby.L1Cache_Controller.IS.Data_all_Acks::total        10525                      
system.ruby.L1Cache_Controller.IM.Data_all_Acks |     2172269     99.53%     99.53% |        5111      0.23%     99.76% |        5164      0.24%    100.00%
system.ruby.L1Cache_Controller.IM.Data_all_Acks::total      2182544                      
system.ruby.L1Cache_Controller.SM.Ack    |          13     86.67%     86.67% |           1      6.67%     93.33% |           1      6.67%    100.00%
system.ruby.L1Cache_Controller.SM.Ack::total           15                      
system.ruby.L1Cache_Controller.SM.Ack_all |          12     85.71%     85.71% |           1      7.14%     92.86% |           1      7.14%    100.00%
system.ruby.L1Cache_Controller.SM.Ack_all::total           14                      
system.ruby.L1Cache_Controller.M_I.Inv   |           0      0.00%      0.00% |           1    100.00%    100.00% |           0      0.00%    100.00%
system.ruby.L1Cache_Controller.M_I.Inv::total            1                      
system.ruby.L1Cache_Controller.M_I.WB_Ack |     2047167     38.73%     38.73% |     1611040     30.48%     69.22% |     1626966     30.78%    100.00%
system.ruby.L1Cache_Controller.M_I.WB_Ack::total      5285173                      
system.ruby.L1Cache_Controller.SINK_WB_ACK.WB_Ack |           0      0.00%      0.00% |           1    100.00%    100.00% |           0      0.00%    100.00%
system.ruby.L1Cache_Controller.SINK_WB_ACK.WB_Ack::total            1                      
system.ruby.L1Cache_Controller.S_IL0.L0_Invalidate_Own |           0      0.00%      0.00% |        5534     42.67%     42.67% |        7436     57.33%    100.00%
system.ruby.L1Cache_Controller.S_IL0.L0_Invalidate_Own::total        12970                      
system.ruby.L1Cache_Controller.S_IL0.L0_Invalidate_Else |           3      0.77%      0.77% |         190     48.59%     49.36% |         198     50.64%    100.00%
system.ruby.L1Cache_Controller.S_IL0.L0_Invalidate_Else::total          391                      
system.ruby.L1Cache_Controller.S_IL0.L0_Ack |           3      0.02%      0.02% |        5724     42.84%     42.86% |        7634     57.14%    100.00%
system.ruby.L1Cache_Controller.S_IL0.L0_Ack::total        13361                      
system.ruby.L1Cache_Controller.E_IL0.L0_DataAck |        1296     60.20%     60.20% |         422     19.60%     79.80% |         435     20.20%    100.00%
system.ruby.L1Cache_Controller.E_IL0.L0_DataAck::total         2153                      
system.ruby.L1Cache_Controller.E_IL0.L0_Invalidate_Own |        6406      7.47%      7.47% |       40025     46.69%     54.16% |       39296     45.84%    100.00%
system.ruby.L1Cache_Controller.E_IL0.L0_Invalidate_Own::total        85727                      
system.ruby.L1Cache_Controller.E_IL0.L0_Invalidate_Else |         140      3.20%      3.20% |        3579     81.71%     84.91% |         661     15.09%    100.00%
system.ruby.L1Cache_Controller.E_IL0.L0_Invalidate_Else::total         4380                      
system.ruby.L1Cache_Controller.E_IL0.L0_Ack |        5250      5.97%      5.97% |       43182     49.10%     55.07% |       39522     44.93%    100.00%
system.ruby.L1Cache_Controller.E_IL0.L0_Ack::total        87954                      
system.ruby.L1Cache_Controller.M_IL0.L0_DataAck |        4466     31.04%     31.04% |        4982     34.62%     65.66% |        4942     34.34%    100.00%
system.ruby.L1Cache_Controller.M_IL0.L0_DataAck::total        14390                      
system.ruby.L1Cache_Controller.M_IL0.L0_Invalidate_Own |        3313     26.47%     26.47% |        4825     38.55%     65.02% |        4379     34.98%    100.00%
system.ruby.L1Cache_Controller.M_IL0.L0_Invalidate_Own::total        12517                      
system.ruby.L1Cache_Controller.M_IL0.L0_Invalidate_Else |        1190     42.61%     42.61% |         656     23.49%     66.09% |         947     33.91%    100.00%
system.ruby.L1Cache_Controller.M_IL0.L0_Invalidate_Else::total         2793                      
system.ruby.L1Cache_Controller.M_IL0.L0_Ack |          37      4.02%      4.02% |         499     54.24%     58.26% |         384     41.74%    100.00%
system.ruby.L1Cache_Controller.M_IL0.L0_Ack::total          920                      
system.ruby.L2Cache_Controller.L1_GETS        3305299      0.00%      0.00%
system.ruby.L2Cache_Controller.L1_GETX        2182553      0.00%      0.00%
system.ruby.L2Cache_Controller.L1_UPGRADE           14      0.00%      0.00%
system.ruby.L2Cache_Controller.L1_PUTX        5285173      0.00%      0.00%
system.ruby.L2Cache_Controller.L1_PUTX_old            2      0.00%      0.00%
system.ruby.L2Cache_Controller.L2_Replacement      1590529      0.00%      0.00%
system.ruby.L2Cache_Controller.L2_Replacement_clean      1751185      0.00%      0.00%
system.ruby.L2Cache_Controller.Mem_Data       3501452      0.00%      0.00%
system.ruby.L2Cache_Controller.Mem_Ack        3341713      0.00%      0.00%
system.ruby.L2Cache_Controller.WB_Data         134902      0.00%      0.00%
system.ruby.L2Cache_Controller.WB_Data_clean        47175      0.00%      0.00%
system.ruby.L2Cache_Controller.Ack               1642      0.00%      0.00%
system.ruby.L2Cache_Controller.Ack_all           4602      0.00%      0.00%
system.ruby.L2Cache_Controller.Unblock           1560      0.00%      0.00%
system.ruby.L2Cache_Controller.Exclusive_Unblock      5475184      0.00%      0.00%
system.ruby.L2Cache_Controller.NP.L1_GETS      1319831      0.00%      0.00%
system.ruby.L2Cache_Controller.NP.L1_GETX      2181621      0.00%      0.00%
system.ruby.L2Cache_Controller.NP.L1_PUTX_old            1      0.00%      0.00%
system.ruby.L2Cache_Controller.SS.L1_GETS        10201      0.00%      0.00%
system.ruby.L2Cache_Controller.SS.L1_UPGRADE           14      0.00%      0.00%
system.ruby.L2Cache_Controller.SS.L2_Replacement         1478      0.00%      0.00%
system.ruby.L2Cache_Controller.SS.L2_Replacement_clean          158      0.00%      0.00%
system.ruby.L2Cache_Controller.M.L1_GETS      1972957      0.00%      0.00%
system.ruby.L2Cache_Controller.M.L1_GETX          916      0.00%      0.00%
system.ruby.L2Cache_Controller.M.L2_Replacement      1588233      0.00%      0.00%
system.ruby.L2Cache_Controller.M.L2_Replacement_clean      1568361      0.00%      0.00%
system.ruby.L2Cache_Controller.MT.L1_GETS         1560      0.00%      0.00%
system.ruby.L2Cache_Controller.MT.L1_GETX            7      0.00%      0.00%
system.ruby.L2Cache_Controller.MT.L1_PUTX      5285173      0.00%      0.00%
system.ruby.L2Cache_Controller.MT.L2_Replacement          818      0.00%      0.00%
system.ruby.L2Cache_Controller.MT.L2_Replacement_clean       182665      0.00%      0.00%
system.ruby.L2Cache_Controller.M_I.L1_GETS          577      0.00%      0.00%
system.ruby.L2Cache_Controller.M_I.L1_GETX            8      0.00%      0.00%
system.ruby.L2Cache_Controller.M_I.Mem_Ack      3341713      0.00%      0.00%
system.ruby.L2Cache_Controller.MT_I.WB_Data           49      0.00%      0.00%
system.ruby.L2Cache_Controller.MT_I.WB_Data_clean           67      0.00%      0.00%
system.ruby.L2Cache_Controller.MT_I.Ack_all          702      0.00%      0.00%
system.ruby.L2Cache_Controller.MCT_I.L1_PUTX_old            1      0.00%      0.00%
system.ruby.L2Cache_Controller.MCT_I.WB_Data       133445      0.00%      0.00%
system.ruby.L2Cache_Controller.MCT_I.WB_Data_clean        46956      0.00%      0.00%
system.ruby.L2Cache_Controller.MCT_I.Ack_all         2264      0.00%      0.00%
system.ruby.L2Cache_Controller.I_I.Ack            160      0.00%      0.00%
system.ruby.L2Cache_Controller.I_I.Ack_all          158      0.00%      0.00%
system.ruby.L2Cache_Controller.S_I.Ack           1482      0.00%      0.00%
system.ruby.L2Cache_Controller.S_I.Ack_all         1478      0.00%      0.00%
system.ruby.L2Cache_Controller.ISS.L1_GETS          162      0.00%      0.00%
system.ruby.L2Cache_Controller.ISS.L2_Replacement_clean            1      0.00%      0.00%
system.ruby.L2Cache_Controller.ISS.Mem_Data      1319669      0.00%      0.00%
system.ruby.L2Cache_Controller.IS.Mem_Data          162      0.00%      0.00%
system.ruby.L2Cache_Controller.IM.L1_GETX            1      0.00%      0.00%
system.ruby.L2Cache_Controller.IM.Mem_Data      2181621      0.00%      0.00%
system.ruby.L2Cache_Controller.SS_MB.Exclusive_Unblock           14      0.00%      0.00%
system.ruby.L2Cache_Controller.MT_MB.L1_GETS            8      0.00%      0.00%
system.ruby.L2Cache_Controller.MT_MB.Exclusive_Unblock      5475170      0.00%      0.00%
system.ruby.L2Cache_Controller.MT_IIB.L1_GETS            3      0.00%      0.00%
system.ruby.L2Cache_Controller.MT_IIB.WB_Data         1396      0.00%      0.00%
system.ruby.L2Cache_Controller.MT_IIB.WB_Data_clean          152      0.00%      0.00%
system.ruby.L2Cache_Controller.MT_IIB.Unblock           12      0.00%      0.00%
system.ruby.L2Cache_Controller.MT_IB.WB_Data           12      0.00%      0.00%
system.ruby.L2Cache_Controller.MT_SB.Unblock         1548      0.00%      0.00%

---------- End Simulation Statistics   ----------
