
---------- Begin Simulation Statistics ----------
sim_seconds                                  0.118323                       # Number of seconds simulated
sim_ticks                                118323035000                       # Number of ticks simulated
final_tick                               118323035000                       # Number of ticks from beginning of simulation (restored from checkpoints and never reset)
sim_freq                                 1000000000000                       # Frequency of simulated ticks
host_inst_rate                                  81529                       # Simulator instruction rate (inst/s)
host_op_rate                                   224922                       # Simulator op (including micro ops) rate (op/s)
host_tick_rate                              140830611                       # Simulator tick rate (ticks/s)
host_mem_usage                                 776580                       # Number of bytes of host memory used
host_seconds                                   840.18                       # Real time elapsed on the host
sim_insts                                    68499138                       # Number of instructions simulated
sim_ops                                     188975205                       # Number of ops (including micro ops) simulated
system.voltage_domain.voltage                       1                       # Voltage in Volts
system.clk_domain.clock                          1000                       # Clock period in ticks
system.mem_ctrls.bytes_read::ruby.dir_cntrl0      4076416                       # Number of bytes read from this memory
system.mem_ctrls.bytes_read::total            4076416                       # Number of bytes read from this memory
system.mem_ctrls.num_reads::ruby.dir_cntrl0        63694                       # Number of read requests responded to by this memory
system.mem_ctrls.num_reads::total               63694                       # Number of read requests responded to by this memory
system.mem_ctrls.bw_read::ruby.dir_cntrl0     34451584                       # Total read bandwidth from this memory (bytes/s)
system.mem_ctrls.bw_read::total              34451584                       # Total read bandwidth from this memory (bytes/s)
system.mem_ctrls.bw_total::ruby.dir_cntrl0     34451584                       # Total bandwidth to/from this memory (bytes/s)
system.mem_ctrls.bw_total::total             34451584                       # Total bandwidth to/from this memory (bytes/s)
system.mem_ctrls.readReqs                       63694                       # Number of read requests accepted
system.mem_ctrls.writeReqs                          0                       # Number of write requests accepted
system.mem_ctrls.readBursts                     63694                       # Number of DRAM read bursts, including those serviced by the write queue
system.mem_ctrls.writeBursts                        0                       # Number of DRAM write bursts, including those merged in the write queue
system.mem_ctrls.bytesReadDRAM                4076416                       # Total number of bytes read from DRAM
system.mem_ctrls.bytesReadWrQ                       0                       # Total number of bytes read from write queue
system.mem_ctrls.bytesWritten                       0                       # Total number of bytes written to DRAM
system.mem_ctrls.bytesReadSys                 4076416                       # Total read bytes from the system interface side
system.mem_ctrls.bytesWrittenSys                    0                       # Total written bytes from the system interface side
system.mem_ctrls.servicedByWrQ                      0                       # Number of DRAM read bursts serviced by the write queue
system.mem_ctrls.mergedWrBursts                     0                       # Number of DRAM write bursts merged with an existing one
system.mem_ctrls.neitherReadNorWriteReqs            0                       # Number of requests that are neither read nor write
system.mem_ctrls.perBankRdBursts::0              3939                       # Per bank write bursts
system.mem_ctrls.perBankRdBursts::1              3943                       # Per bank write bursts
system.mem_ctrls.perBankRdBursts::2              3860                       # Per bank write bursts
system.mem_ctrls.perBankRdBursts::3              3713                       # Per bank write bursts
system.mem_ctrls.perBankRdBursts::4              3832                       # Per bank write bursts
system.mem_ctrls.perBankRdBursts::5              3831                       # Per bank write bursts
system.mem_ctrls.perBankRdBursts::6              4128                       # Per bank write bursts
system.mem_ctrls.perBankRdBursts::7              4180                       # Per bank write bursts
system.mem_ctrls.perBankRdBursts::8              4014                       # Per bank write bursts
system.mem_ctrls.perBankRdBursts::9              4106                       # Per bank write bursts
system.mem_ctrls.perBankRdBursts::10             4178                       # Per bank write bursts
system.mem_ctrls.perBankRdBursts::11             4226                       # Per bank write bursts
system.mem_ctrls.perBankRdBursts::12             4056                       # Per bank write bursts
system.mem_ctrls.perBankRdBursts::13             3926                       # Per bank write bursts
system.mem_ctrls.perBankRdBursts::14             3869                       # Per bank write bursts
system.mem_ctrls.perBankRdBursts::15             3893                       # Per bank write bursts
system.mem_ctrls.perBankWrBursts::0                 0                       # Per bank write bursts
system.mem_ctrls.perBankWrBursts::1                 0                       # Per bank write bursts
system.mem_ctrls.perBankWrBursts::2                 0                       # Per bank write bursts
system.mem_ctrls.perBankWrBursts::3                 0                       # Per bank write bursts
system.mem_ctrls.perBankWrBursts::4                 0                       # Per bank write bursts
system.mem_ctrls.perBankWrBursts::5                 0                       # Per bank write bursts
system.mem_ctrls.perBankWrBursts::6                 0                       # Per bank write bursts
system.mem_ctrls.perBankWrBursts::7                 0                       # Per bank write bursts
system.mem_ctrls.perBankWrBursts::8                 0                       # Per bank write bursts
system.mem_ctrls.perBankWrBursts::9                 0                       # Per bank write bursts
system.mem_ctrls.perBankWrBursts::10                0                       # Per bank write bursts
system.mem_ctrls.perBankWrBursts::11                0                       # Per bank write bursts
system.mem_ctrls.perBankWrBursts::12                0                       # Per bank write bursts
system.mem_ctrls.perBankWrBursts::13                0                       # Per bank write bursts
system.mem_ctrls.perBankWrBursts::14                0                       # Per bank write bursts
system.mem_ctrls.perBankWrBursts::15                0                       # Per bank write bursts
system.mem_ctrls.numRdRetry                         0                       # Number of times read queue was full causing retry
system.mem_ctrls.numWrRetry                         0                       # Number of times write queue was full causing retry
system.mem_ctrls.totGap                  118322954500                       # Total gap between requests
system.mem_ctrls.readPktSize::0                     0                       # Read request sizes (log2)
system.mem_ctrls.readPktSize::1                     0                       # Read request sizes (log2)
system.mem_ctrls.readPktSize::2                     0                       # Read request sizes (log2)
system.mem_ctrls.readPktSize::3                     0                       # Read request sizes (log2)
system.mem_ctrls.readPktSize::4                     0                       # Read request sizes (log2)
system.mem_ctrls.readPktSize::5                     0                       # Read request sizes (log2)
system.mem_ctrls.readPktSize::6                 63694                       # Read request sizes (log2)
system.mem_ctrls.writePktSize::0                    0                       # Write request sizes (log2)
system.mem_ctrls.writePktSize::1                    0                       # Write request sizes (log2)
system.mem_ctrls.writePktSize::2                    0                       # Write request sizes (log2)
system.mem_ctrls.writePktSize::3                    0                       # Write request sizes (log2)
system.mem_ctrls.writePktSize::4                    0                       # Write request sizes (log2)
system.mem_ctrls.writePktSize::5                    0                       # Write request sizes (log2)
system.mem_ctrls.writePktSize::6                    0                       # Write request sizes (log2)
system.mem_ctrls.rdQLenPdf::0                   63693                       # What read queue length does an incoming req see
system.mem_ctrls.rdQLenPdf::1                       1                       # What read queue length does an incoming req see
system.mem_ctrls.rdQLenPdf::2                       0                       # What read queue length does an incoming req see
system.mem_ctrls.rdQLenPdf::3                       0                       # What read queue length does an incoming req see
system.mem_ctrls.rdQLenPdf::4                       0                       # What read queue length does an incoming req see
system.mem_ctrls.rdQLenPdf::5                       0                       # What read queue length does an incoming req see
system.mem_ctrls.rdQLenPdf::6                       0                       # What read queue length does an incoming req see
system.mem_ctrls.rdQLenPdf::7                       0                       # What read queue length does an incoming req see
system.mem_ctrls.rdQLenPdf::8                       0                       # What read queue length does an incoming req see
system.mem_ctrls.rdQLenPdf::9                       0                       # What read queue length does an incoming req see
system.mem_ctrls.rdQLenPdf::10                      0                       # What read queue length does an incoming req see
system.mem_ctrls.rdQLenPdf::11                      0                       # What read queue length does an incoming req see
system.mem_ctrls.rdQLenPdf::12                      0                       # What read queue length does an incoming req see
system.mem_ctrls.rdQLenPdf::13                      0                       # What read queue length does an incoming req see
system.mem_ctrls.rdQLenPdf::14                      0                       # What read queue length does an incoming req see
system.mem_ctrls.rdQLenPdf::15                      0                       # What read queue length does an incoming req see
system.mem_ctrls.rdQLenPdf::16                      0                       # What read queue length does an incoming req see
system.mem_ctrls.rdQLenPdf::17                      0                       # What read queue length does an incoming req see
system.mem_ctrls.rdQLenPdf::18                      0                       # What read queue length does an incoming req see
system.mem_ctrls.rdQLenPdf::19                      0                       # What read queue length does an incoming req see
system.mem_ctrls.rdQLenPdf::20                      0                       # What read queue length does an incoming req see
system.mem_ctrls.rdQLenPdf::21                      0                       # What read queue length does an incoming req see
system.mem_ctrls.rdQLenPdf::22                      0                       # What read queue length does an incoming req see
system.mem_ctrls.rdQLenPdf::23                      0                       # What read queue length does an incoming req see
system.mem_ctrls.rdQLenPdf::24                      0                       # What read queue length does an incoming req see
system.mem_ctrls.rdQLenPdf::25                      0                       # What read queue length does an incoming req see
system.mem_ctrls.rdQLenPdf::26                      0                       # What read queue length does an incoming req see
system.mem_ctrls.rdQLenPdf::27                      0                       # What read queue length does an incoming req see
system.mem_ctrls.rdQLenPdf::28                      0                       # What read queue length does an incoming req see
system.mem_ctrls.rdQLenPdf::29                      0                       # What read queue length does an incoming req see
system.mem_ctrls.rdQLenPdf::30                      0                       # What read queue length does an incoming req see
system.mem_ctrls.rdQLenPdf::31                      0                       # What read queue length does an incoming req see
system.mem_ctrls.wrQLenPdf::0                       0                       # What write queue length does an incoming req see
system.mem_ctrls.wrQLenPdf::1                       0                       # What write queue length does an incoming req see
system.mem_ctrls.wrQLenPdf::2                       0                       # What write queue length does an incoming req see
system.mem_ctrls.wrQLenPdf::3                       0                       # What write queue length does an incoming req see
system.mem_ctrls.wrQLenPdf::4                       0                       # What write queue length does an incoming req see
system.mem_ctrls.wrQLenPdf::5                       0                       # What write queue length does an incoming req see
system.mem_ctrls.wrQLenPdf::6                       0                       # What write queue length does an incoming req see
system.mem_ctrls.wrQLenPdf::7                       0                       # What write queue length does an incoming req see
system.mem_ctrls.wrQLenPdf::8                       0                       # What write queue length does an incoming req see
system.mem_ctrls.wrQLenPdf::9                       0                       # What write queue length does an incoming req see
system.mem_ctrls.wrQLenPdf::10                      0                       # What write queue length does an incoming req see
system.mem_ctrls.wrQLenPdf::11                      0                       # What write queue length does an incoming req see
system.mem_ctrls.wrQLenPdf::12                      0                       # What write queue length does an incoming req see
system.mem_ctrls.wrQLenPdf::13                      0                       # What write queue length does an incoming req see
system.mem_ctrls.wrQLenPdf::14                      0                       # What write queue length does an incoming req see
system.mem_ctrls.wrQLenPdf::15                      0                       # What write queue length does an incoming req see
system.mem_ctrls.wrQLenPdf::16                      0                       # What write queue length does an incoming req see
system.mem_ctrls.wrQLenPdf::17                      0                       # What write queue length does an incoming req see
system.mem_ctrls.wrQLenPdf::18                      0                       # What write queue length does an incoming req see
system.mem_ctrls.wrQLenPdf::19                      0                       # What write queue length does an incoming req see
system.mem_ctrls.wrQLenPdf::20                      0                       # What write queue length does an incoming req see
system.mem_ctrls.wrQLenPdf::21                      0                       # What write queue length does an incoming req see
system.mem_ctrls.wrQLenPdf::22                      0                       # What write queue length does an incoming req see
system.mem_ctrls.wrQLenPdf::23                      0                       # What write queue length does an incoming req see
system.mem_ctrls.wrQLenPdf::24                      0                       # What write queue length does an incoming req see
system.mem_ctrls.wrQLenPdf::25                      0                       # What write queue length does an incoming req see
system.mem_ctrls.wrQLenPdf::26                      0                       # What write queue length does an incoming req see
system.mem_ctrls.wrQLenPdf::27                      0                       # What write queue length does an incoming req see
system.mem_ctrls.wrQLenPdf::28                      0                       # What write queue length does an incoming req see
system.mem_ctrls.wrQLenPdf::29                      0                       # What write queue length does an incoming req see
system.mem_ctrls.wrQLenPdf::30                      0                       # What write queue length does an incoming req see
system.mem_ctrls.wrQLenPdf::31                      0                       # What write queue length does an incoming req see
system.mem_ctrls.wrQLenPdf::32                      0                       # What write queue length does an incoming req see
system.mem_ctrls.wrQLenPdf::33                      0                       # What write queue length does an incoming req see
system.mem_ctrls.wrQLenPdf::34                      0                       # What write queue length does an incoming req see
system.mem_ctrls.wrQLenPdf::35                      0                       # What write queue length does an incoming req see
system.mem_ctrls.wrQLenPdf::36                      0                       # What write queue length does an incoming req see
system.mem_ctrls.wrQLenPdf::37                      0                       # What write queue length does an incoming req see
system.mem_ctrls.wrQLenPdf::38                      0                       # What write queue length does an incoming req see
system.mem_ctrls.wrQLenPdf::39                      0                       # What write queue length does an incoming req see
system.mem_ctrls.wrQLenPdf::40                      0                       # What write queue length does an incoming req see
system.mem_ctrls.wrQLenPdf::41                      0                       # What write queue length does an incoming req see
system.mem_ctrls.wrQLenPdf::42                      0                       # What write queue length does an incoming req see
system.mem_ctrls.wrQLenPdf::43                      0                       # What write queue length does an incoming req see
system.mem_ctrls.wrQLenPdf::44                      0                       # What write queue length does an incoming req see
system.mem_ctrls.wrQLenPdf::45                      0                       # What write queue length does an incoming req see
system.mem_ctrls.wrQLenPdf::46                      0                       # What write queue length does an incoming req see
system.mem_ctrls.wrQLenPdf::47                      0                       # What write queue length does an incoming req see
system.mem_ctrls.wrQLenPdf::48                      0                       # What write queue length does an incoming req see
system.mem_ctrls.wrQLenPdf::49                      0                       # What write queue length does an incoming req see
system.mem_ctrls.wrQLenPdf::50                      0                       # What write queue length does an incoming req see
system.mem_ctrls.wrQLenPdf::51                      0                       # What write queue length does an incoming req see
system.mem_ctrls.wrQLenPdf::52                      0                       # What write queue length does an incoming req see
system.mem_ctrls.wrQLenPdf::53                      0                       # What write queue length does an incoming req see
system.mem_ctrls.wrQLenPdf::54                      0                       # What write queue length does an incoming req see
system.mem_ctrls.wrQLenPdf::55                      0                       # What write queue length does an incoming req see
system.mem_ctrls.wrQLenPdf::56                      0                       # What write queue length does an incoming req see
system.mem_ctrls.wrQLenPdf::57                      0                       # What write queue length does an incoming req see
system.mem_ctrls.wrQLenPdf::58                      0                       # What write queue length does an incoming req see
system.mem_ctrls.wrQLenPdf::59                      0                       # What write queue length does an incoming req see
system.mem_ctrls.wrQLenPdf::60                      0                       # What write queue length does an incoming req see
system.mem_ctrls.wrQLenPdf::61                      0                       # What write queue length does an incoming req see
system.mem_ctrls.wrQLenPdf::62                      0                       # What write queue length does an incoming req see
system.mem_ctrls.wrQLenPdf::63                      0                       # What write queue length does an incoming req see
system.mem_ctrls.bytesPerActivate::samples        15645                       # Bytes accessed per row activation
system.mem_ctrls.bytesPerActivate::mean    260.438479                       # Bytes accessed per row activation
system.mem_ctrls.bytesPerActivate::gmean   249.609012                       # Bytes accessed per row activation
system.mem_ctrls.bytesPerActivate::stdev    71.595793                       # Bytes accessed per row activation
system.mem_ctrls.bytesPerActivate::0-127          605      3.87%      3.87% # Bytes accessed per row activation
system.mem_ctrls.bytesPerActivate::128-255          730      4.67%      8.53% # Bytes accessed per row activation
system.mem_ctrls.bytesPerActivate::256-383        14029     89.67%     98.20% # Bytes accessed per row activation
system.mem_ctrls.bytesPerActivate::384-511          162      1.04%     99.24% # Bytes accessed per row activation
system.mem_ctrls.bytesPerActivate::512-639           31      0.20%     99.44% # Bytes accessed per row activation
system.mem_ctrls.bytesPerActivate::640-767           25      0.16%     99.60% # Bytes accessed per row activation
system.mem_ctrls.bytesPerActivate::768-895           14      0.09%     99.69% # Bytes accessed per row activation
system.mem_ctrls.bytesPerActivate::896-1023           15      0.10%     99.78% # Bytes accessed per row activation
system.mem_ctrls.bytesPerActivate::1024-1151           34      0.22%    100.00% # Bytes accessed per row activation
system.mem_ctrls.bytesPerActivate::total        15645                       # Bytes accessed per row activation
system.mem_ctrls.totQLat                    661221749                       # Total ticks spent queuing
system.mem_ctrls.totMemAccLat              1855484249                       # Total ticks spent from burst creation until serviced by the DRAM
system.mem_ctrls.totBusLat                  318470000                       # Total ticks spent in databus transfers
system.mem_ctrls.avgQLat                     10381.23                       # Average queueing delay per DRAM burst
system.mem_ctrls.avgBusLat                    5000.00                       # Average bus latency per DRAM burst
system.mem_ctrls.avgMemAccLat                29131.23                       # Average memory access latency per DRAM burst
system.mem_ctrls.avgRdBW                        34.45                       # Average DRAM read bandwidth in MiByte/s
system.mem_ctrls.avgWrBW                         0.00                       # Average achieved write bandwidth in MiByte/s
system.mem_ctrls.avgRdBWSys                     34.45                       # Average system read bandwidth in MiByte/s
system.mem_ctrls.avgWrBWSys                      0.00                       # Average system write bandwidth in MiByte/s
system.mem_ctrls.peakBW                      12800.00                       # Theoretical peak bandwidth in MiByte/s
system.mem_ctrls.busUtil                         0.27                       # Data bus utilization in percentage
system.mem_ctrls.busUtilRead                     0.27                       # Data bus utilization in percentage for reads
system.mem_ctrls.busUtilWrite                    0.00                       # Data bus utilization in percentage for writes
system.mem_ctrls.avgRdQLen                       1.00                       # Average read queue length when enqueuing
system.mem_ctrls.avgWrQLen                       0.00                       # Average write queue length when enqueuing
system.mem_ctrls.readRowHits                    48040                       # Number of row buffer hits during reads
system.mem_ctrls.writeRowHits                       0                       # Number of row buffer hits during writes
system.mem_ctrls.readRowHitRate                 75.42                       # Row buffer hit rate for reads
system.mem_ctrls.writeRowHitRate                  nan                       # Row buffer hit rate for writes
system.mem_ctrls.avgGap                    1857678.19                       # Average gap between requests
system.mem_ctrls.pageHitRate                    75.42                       # Row buffer hit rate, read and write combined
system.mem_ctrls_0.actEnergy                 59043600                       # Energy for activate commands per rank (pJ)
system.mem_ctrls_0.preEnergy                 32216250                       # Energy for precharge commands per rank (pJ)
system.mem_ctrls_0.readEnergy               245044800                       # Energy for read commands per rank (pJ)
system.mem_ctrls_0.writeEnergy                      0                       # Energy for write commands per rank (pJ)
system.mem_ctrls_0.refreshEnergy           7728077760                       # Energy for refresh commands per rank (pJ)
system.mem_ctrls_0.actBackEnergy          36584325675                       # Energy for active background per rank (pJ)
system.mem_ctrls_0.preBackEnergy          38900555250                       # Energy for precharge background per rank (pJ)
system.mem_ctrls_0.totalEnergy            83549263335                       # Total energy per rank (pJ)
system.mem_ctrls_0.averagePower            706.128990                       # Core power per rank (mW)
system.mem_ctrls_0.memoryStateTime::IDLE  64520657000                       # Time in different power states
system.mem_ctrls_0.memoryStateTime::REF    3950960000                       # Time in different power states
system.mem_ctrls_0.memoryStateTime::PRE_PDN            0                       # Time in different power states
system.mem_ctrls_0.memoryStateTime::ACT   49848816000                       # Time in different power states
system.mem_ctrls_0.memoryStateTime::ACT_PDN            0                       # Time in different power states
system.mem_ctrls_1.actEnergy                 59225040                       # Energy for activate commands per rank (pJ)
system.mem_ctrls_1.preEnergy                 32315250                       # Energy for precharge commands per rank (pJ)
system.mem_ctrls_1.readEnergy               251526600                       # Energy for read commands per rank (pJ)
system.mem_ctrls_1.writeEnergy                      0                       # Energy for write commands per rank (pJ)
system.mem_ctrls_1.refreshEnergy           7728077760                       # Energy for refresh commands per rank (pJ)
system.mem_ctrls_1.actBackEnergy          37467242280                       # Energy for active background per rank (pJ)
system.mem_ctrls_1.preBackEnergy          38126058750                       # Energy for precharge background per rank (pJ)
system.mem_ctrls_1.totalEnergy            83664445680                       # Total energy per rank (pJ)
system.mem_ctrls_1.averagePower            707.102553                       # Core power per rank (mW)
system.mem_ctrls_1.memoryStateTime::IDLE  63227838750                       # Time in different power states
system.mem_ctrls_1.memoryStateTime::REF    3950960000                       # Time in different power states
system.mem_ctrls_1.memoryStateTime::PRE_PDN            0                       # Time in different power states
system.mem_ctrls_1.memoryStateTime::ACT   51141920250                       # Time in different power states
system.mem_ctrls_1.memoryStateTime::ACT_PDN            0                       # Time in different power states
system.cpu_voltage_domain.voltage                   1                       # Voltage in Volts
system.cpu_clk_domain.clock                       500                       # Clock period in ticks
system.cpu0.apic_clk_domain.clock                8000                       # Clock period in ticks
system.cpu0.workload.num_syscalls                  61                       # Number of system calls
system.cpu0.numCycles                       236646070                       # number of cpu cycles simulated
system.cpu0.numWorkItemsStarted                     0                       # number of work items this cpu started
system.cpu0.numWorkItemsCompleted                   0                       # number of work items this cpu completed
system.cpu0.committedInsts                   65621622                       # Number of instructions committed
system.cpu0.committedOps                    183221734                       # Number of ops (including micro ops) committed
system.cpu0.num_int_alu_accesses            173225899                       # Number of integer alu accesses
system.cpu0.num_fp_alu_accesses               4677674                       # Number of float alu accesses
system.cpu0.num_func_calls                    6140880                       # number of times a function call or return occured
system.cpu0.num_conditional_control_insts     13974524                       # number of instructions that are conditional controls
system.cpu0.num_int_insts                   173225899                       # number of integer instructions
system.cpu0.num_fp_insts                      4677674                       # number of float instructions
system.cpu0.num_int_register_reads          365022773                       # number of times the integer registers were read
system.cpu0.num_int_register_writes         172095171                       # number of times the integer registers were written
system.cpu0.num_fp_register_reads             7498257                       # number of times the floating registers were read
system.cpu0.num_fp_register_writes            3715154                       # number of times the floating registers were written
system.cpu0.num_cc_register_reads           144953144                       # number of times the CC registers were read
system.cpu0.num_cc_register_writes           54671046                       # number of times the CC registers were written
system.cpu0.num_mem_refs                     28461976                       # number of memory refs
system.cpu0.num_load_insts                   17617097                       # Number of load instructions
system.cpu0.num_store_insts                  10844879                       # Number of store instructions
system.cpu0.num_idle_cycles                  0.002000                       # Number of idle cycles
system.cpu0.num_busy_cycles              236646069.998000                       # Number of busy cycles
system.cpu0.not_idle_fraction                1.000000                       # Percentage of non-idle cycles
system.cpu0.idle_fraction                    0.000000                       # Percentage of idle cycles
system.cpu0.Branches                         23118507                       # Number of branches fetched
system.cpu0.op_class::No_OpClass              3084847      1.68%      1.68% # Class of executed instruction
system.cpu0.op_class::IntAlu                132638091     72.39%     74.08% # Class of executed instruction
system.cpu0.op_class::IntMult                     316      0.00%     74.08% # Class of executed instruction
system.cpu0.op_class::IntDiv                 15322044      8.36%     82.44% # Class of executed instruction
system.cpu0.op_class::FloatAdd                3714460      2.03%     84.47% # Class of executed instruction
system.cpu0.op_class::FloatCmp                      0      0.00%     84.47% # Class of executed instruction
system.cpu0.op_class::FloatCvt                      0      0.00%     84.47% # Class of executed instruction
system.cpu0.op_class::FloatMult                     0      0.00%     84.47% # Class of executed instruction
system.cpu0.op_class::FloatDiv                      0      0.00%     84.47% # Class of executed instruction
system.cpu0.op_class::FloatSqrt                     0      0.00%     84.47% # Class of executed instruction
system.cpu0.op_class::SimdAdd                       0      0.00%     84.47% # Class of executed instruction
system.cpu0.op_class::SimdAddAcc                    0      0.00%     84.47% # Class of executed instruction
system.cpu0.op_class::SimdAlu                       0      0.00%     84.47% # Class of executed instruction
system.cpu0.op_class::SimdCmp                       0      0.00%     84.47% # Class of executed instruction
system.cpu0.op_class::SimdCvt                       0      0.00%     84.47% # Class of executed instruction
system.cpu0.op_class::SimdMisc                      0      0.00%     84.47% # Class of executed instruction
system.cpu0.op_class::SimdMult                      0      0.00%     84.47% # Class of executed instruction
system.cpu0.op_class::SimdMultAcc                   0      0.00%     84.47% # Class of executed instruction
system.cpu0.op_class::SimdShift                     0      0.00%     84.47% # Class of executed instruction
system.cpu0.op_class::SimdShiftAcc                  0      0.00%     84.47% # Class of executed instruction
system.cpu0.op_class::SimdSqrt                      0      0.00%     84.47% # Class of executed instruction
system.cpu0.op_class::SimdFloatAdd                  0      0.00%     84.47% # Class of executed instruction
system.cpu0.op_class::SimdFloatAlu                  0      0.00%     84.47% # Class of executed instruction
system.cpu0.op_class::SimdFloatCmp                  0      0.00%     84.47% # Class of executed instruction
system.cpu0.op_class::SimdFloatCvt                  0      0.00%     84.47% # Class of executed instruction
system.cpu0.op_class::SimdFloatDiv                  0      0.00%     84.47% # Class of executed instruction
system.cpu0.op_class::SimdFloatMisc                 0      0.00%     84.47% # Class of executed instruction
system.cpu0.op_class::SimdFloatMult                 0      0.00%     84.47% # Class of executed instruction
system.cpu0.op_class::SimdFloatMultAcc              0      0.00%     84.47% # Class of executed instruction
system.cpu0.op_class::SimdFloatSqrt                 0      0.00%     84.47% # Class of executed instruction
system.cpu0.op_class::MemRead                17617097      9.62%     94.08% # Class of executed instruction
system.cpu0.op_class::MemWrite               10844879      5.92%    100.00% # Class of executed instruction
system.cpu0.op_class::IprAccess                     0      0.00%    100.00% # Class of executed instruction
system.cpu0.op_class::InstPrefetch                  0      0.00%    100.00% # Class of executed instruction
system.cpu0.op_class::total                 183221734                       # Class of executed instruction
system.cpu1.apic_clk_domain.clock                8000                       # Clock period in ticks
system.cpu1.numCycles                       236433979                       # number of cpu cycles simulated
system.cpu1.numWorkItemsStarted                     0                       # number of work items this cpu started
system.cpu1.numWorkItemsCompleted                   0                       # number of work items this cpu completed
system.cpu1.committedInsts                    2877516                       # Number of instructions committed
system.cpu1.committedOps                      5753471                       # Number of ops (including micro ops) committed
system.cpu1.num_int_alu_accesses              4327355                       # Number of integer alu accesses
system.cpu1.num_fp_alu_accesses               2691675                       # Number of float alu accesses
system.cpu1.num_func_calls                      24751                       # number of times a function call or return occured
system.cpu1.num_conditional_control_insts       341144                       # number of instructions that are conditional controls
system.cpu1.num_int_insts                     4327355                       # number of integer instructions
system.cpu1.num_fp_insts                      2691675                       # number of float instructions
system.cpu1.num_int_register_reads            7670140                       # number of times the integer registers were read
system.cpu1.num_int_register_writes           2706596                       # number of times the integer registers were written
system.cpu1.num_fp_register_reads             4167185                       # number of times the floating registers were read
system.cpu1.num_fp_register_writes            2679320                       # number of times the floating registers were written
system.cpu1.num_cc_register_reads             2059260                       # number of times the CC registers were read
system.cpu1.num_cc_register_writes            2052982                       # number of times the CC registers were written
system.cpu1.num_mem_refs                      1330703                       # number of memory refs
system.cpu1.num_load_insts                    1305886                       # Number of load instructions
system.cpu1.num_store_insts                     24817                       # Number of store instructions
system.cpu1.num_idle_cycles              224863475.217705                       # Number of idle cycles
system.cpu1.num_busy_cycles              11570503.782295                       # Number of busy cycles
system.cpu1.not_idle_fraction                0.048938                       # Percentage of non-idle cycles
system.cpu1.idle_fraction                    0.951062                       # Percentage of idle cycles
system.cpu1.Branches                           379810                       # Number of branches fetched
system.cpu1.op_class::No_OpClass                    2      0.00%      0.00% # Class of executed instruction
system.cpu1.op_class::IntAlu                  2959576     51.44%     51.44% # Class of executed instruction
system.cpu1.op_class::IntMult                   37061      0.64%     52.08% # Class of executed instruction
system.cpu1.op_class::IntDiv                       14      0.00%     52.08% # Class of executed instruction
system.cpu1.op_class::FloatAdd                1426115     24.79%     76.87% # Class of executed instruction
system.cpu1.op_class::FloatCmp                      0      0.00%     76.87% # Class of executed instruction
system.cpu1.op_class::FloatCvt                      0      0.00%     76.87% # Class of executed instruction
system.cpu1.op_class::FloatMult                     0      0.00%     76.87% # Class of executed instruction
system.cpu1.op_class::FloatDiv                      0      0.00%     76.87% # Class of executed instruction
system.cpu1.op_class::FloatSqrt                     0      0.00%     76.87% # Class of executed instruction
system.cpu1.op_class::SimdAdd                       0      0.00%     76.87% # Class of executed instruction
system.cpu1.op_class::SimdAddAcc                    0      0.00%     76.87% # Class of executed instruction
system.cpu1.op_class::SimdAlu                       0      0.00%     76.87% # Class of executed instruction
system.cpu1.op_class::SimdCmp                       0      0.00%     76.87% # Class of executed instruction
system.cpu1.op_class::SimdCvt                       0      0.00%     76.87% # Class of executed instruction
system.cpu1.op_class::SimdMisc                      0      0.00%     76.87% # Class of executed instruction
system.cpu1.op_class::SimdMult                      0      0.00%     76.87% # Class of executed instruction
system.cpu1.op_class::SimdMultAcc                   0      0.00%     76.87% # Class of executed instruction
system.cpu1.op_class::SimdShift                     0      0.00%     76.87% # Class of executed instruction
system.cpu1.op_class::SimdShiftAcc                  0      0.00%     76.87% # Class of executed instruction
system.cpu1.op_class::SimdSqrt                      0      0.00%     76.87% # Class of executed instruction
system.cpu1.op_class::SimdFloatAdd                  0      0.00%     76.87% # Class of executed instruction
system.cpu1.op_class::SimdFloatAlu                  0      0.00%     76.87% # Class of executed instruction
system.cpu1.op_class::SimdFloatCmp                  0      0.00%     76.87% # Class of executed instruction
system.cpu1.op_class::SimdFloatCvt                  0      0.00%     76.87% # Class of executed instruction
system.cpu1.op_class::SimdFloatDiv                  0      0.00%     76.87% # Class of executed instruction
system.cpu1.op_class::SimdFloatMisc                 0      0.00%     76.87% # Class of executed instruction
system.cpu1.op_class::SimdFloatMult                 0      0.00%     76.87% # Class of executed instruction
system.cpu1.op_class::SimdFloatMultAcc              0      0.00%     76.87% # Class of executed instruction
system.cpu1.op_class::SimdFloatSqrt                 0      0.00%     76.87% # Class of executed instruction
system.cpu1.op_class::MemRead                 1305886     22.70%     99.57% # Class of executed instruction
system.cpu1.op_class::MemWrite                  24817      0.43%    100.00% # Class of executed instruction
system.cpu1.op_class::IprAccess                     0      0.00%    100.00% # Class of executed instruction
system.cpu1.op_class::InstPrefetch                  0      0.00%    100.00% # Class of executed instruction
system.cpu1.op_class::total                   5753471                       # Class of executed instruction
system.ruby.clk_domain.clock                      500                       # Clock period in ticks
system.ruby.delayHist::bucket_size                  2                       # delay histogram for all message
system.ruby.delayHist::max_bucket                  19                       # delay histogram for all message
system.ruby.delayHist::samples                 855530                       # delay histogram for all message
system.ruby.delayHist::mean                  0.606575                       # delay histogram for all message
system.ruby.delayHist::stdev                 2.122886                       # delay histogram for all message
system.ruby.delayHist                    |      790747     92.43%     92.43% |          12      0.00%     92.43% |         149      0.02%     92.45% |           0      0.00%     92.45% |       64483      7.54%     99.98% |          24      0.00%     99.99% |           0      0.00%     99.99% |           0      0.00%     99.99% |           0      0.00%     99.99% |         115      0.01%    100.00% # delay histogram for all message
system.ruby.delayHist::total                   855530                       # delay histogram for all message
system.ruby.outstanding_req_hist::bucket_size            1                      
system.ruby.outstanding_req_hist::max_bucket            9                      
system.ruby.outstanding_req_hist::samples    118991102                      
system.ruby.outstanding_req_hist::mean       1.000117                      
system.ruby.outstanding_req_hist::gmean      1.000081                      
system.ruby.outstanding_req_hist::stdev      0.010820                      
system.ruby.outstanding_req_hist         |           0      0.00%      0.00% |   118977169     99.99%     99.99% |       13933      0.01%    100.00% |           0      0.00%    100.00% |           0      0.00%    100.00% |           0      0.00%    100.00% |           0      0.00%    100.00% |           0      0.00%    100.00% |           0      0.00%    100.00% |           0      0.00%    100.00%
system.ruby.outstanding_req_hist::total     118991102                      
system.ruby.latency_hist::bucket_size             128                      
system.ruby.latency_hist::max_bucket             1279                      
system.ruby.latency_hist::samples           118991102                      
system.ruby.latency_hist::mean               1.086268                      
system.ruby.latency_hist::gmean              1.004552                      
system.ruby.latency_hist::stdev              3.754713                      
system.ruby.latency_hist                 |   118975447     99.99%     99.99% |       13617      0.01%    100.00% |          31      0.00%    100.00% |         150      0.00%    100.00% |        1596      0.00%    100.00% |         261      0.00%    100.00% |           0      0.00%    100.00% |           0      0.00%    100.00% |           0      0.00%    100.00% |           0      0.00%    100.00%
system.ruby.latency_hist::total             118991102                      
system.ruby.hit_latency_hist::bucket_size          128                      
system.ruby.hit_latency_hist::max_bucket         1279                      
system.ruby.hit_latency_hist::samples       118991102                      
system.ruby.hit_latency_hist::mean           1.086268                      
system.ruby.hit_latency_hist::gmean          1.004552                      
system.ruby.hit_latency_hist::stdev          3.754713                      
system.ruby.hit_latency_hist             |   118975447     99.99%     99.99% |       13617      0.01%    100.00% |          31      0.00%    100.00% |         150      0.00%    100.00% |        1596      0.00%    100.00% |         261      0.00%    100.00% |           0      0.00%    100.00% |           0      0.00%    100.00% |           0      0.00%    100.00% |           0      0.00%    100.00%
system.ruby.hit_latency_hist::total         118991102                      
system.ruby.l0_cntrl0.Dcache.demand_hits     28399578                       # Number of cache demand hits
system.ruby.l0_cntrl0.Dcache.demand_misses        62462                       # Number of cache demand misses
system.ruby.l0_cntrl0.Dcache.demand_accesses     28462040                       # Number of cache demand accesses
system.ruby.l0_cntrl0.Icache.demand_hits     85481495                       # Number of cache demand hits
system.ruby.l0_cntrl0.Icache.demand_misses         2057                       # Number of cache demand misses
system.ruby.l0_cntrl0.Icache.demand_accesses     85483552                       # Number of cache demand accesses
system.ruby.l0_cntrl0.Zcache.demand_hits      5025952                       # Number of cache demand hits
system.ruby.l0_cntrl0.Zcache.demand_misses        61545                       # Number of cache demand misses
system.ruby.l0_cntrl0.Zcache.demand_accesses      5087497                       # Number of cache demand accesses
system.ruby.l0_cntrl1.Dcache.demand_hits      1263437                       # Number of cache demand hits
system.ruby.l0_cntrl1.Dcache.demand_misses        81135                       # Number of cache demand misses
system.ruby.l0_cntrl1.Dcache.demand_accesses      1344572                       # Number of cache demand accesses
system.ruby.l0_cntrl1.Icache.demand_hits      3700559                       # Number of cache demand hits
system.ruby.l0_cntrl1.Icache.demand_misses          379                       # Number of cache demand misses
system.ruby.l0_cntrl1.Icache.demand_accesses      3700938                       # Number of cache demand accesses
system.ruby.l0_cntrl1.Zcache.demand_hits       582794                       # Number of cache demand hits
system.ruby.l0_cntrl1.Zcache.demand_misses        51917                       # Number of cache demand misses
system.ruby.l0_cntrl1.Zcache.demand_accesses       634711                       # Number of cache demand accesses
system.ruby.l1_cntrl0.cache.demand_hits           149                       # Number of cache demand hits
system.ruby.l1_cntrl0.cache.demand_misses        64370                       # Number of cache demand misses
system.ruby.l1_cntrl0.cache.demand_accesses        64519                       # Number of cache demand accesses
system.ruby.l1_cntrl0.zcache.demand_hits            4                       # Number of cache demand hits
system.ruby.l1_cntrl0.zcache.demand_misses         3839                       # Number of cache demand misses
system.ruby.l1_cntrl0.zcache.demand_accesses         3843                       # Number of cache demand accesses
system.ruby.l1_cntrl1.cache.demand_hits         15385                       # Number of cache demand hits
system.ruby.l1_cntrl1.cache.demand_misses        66129                       # Number of cache demand misses
system.ruby.l1_cntrl1.cache.demand_accesses        81514                       # Number of cache demand accesses
system.ruby.l1_cntrl1.zcache.demand_hits        10649                       # Number of cache demand hits
system.ruby.l1_cntrl1.zcache.demand_misses         1456                       # Number of cache demand misses
system.ruby.l1_cntrl1.zcache.demand_accesses        12105                       # Number of cache demand accesses
system.ruby.l2_cntrl0.L2cache.demand_hits        65405                       # Number of cache demand hits
system.ruby.l2_cntrl0.L2cache.demand_misses        65094                       # Number of cache demand misses
system.ruby.l2_cntrl0.L2cache.demand_accesses       130499                       # Number of cache demand accesses
system.ruby.l2_cntrl0.ZL2cache.demand_hits        35058                       # Number of cache demand hits
system.ruby.l2_cntrl0.ZL2cache.demand_misses         4013                       # Number of cache demand misses
system.ruby.l2_cntrl0.ZL2cache.demand_accesses        39071                       # Number of cache demand accesses
system.ruby.memctrl_clk_domain.clock             1500                       # Clock period in ticks
system.ruby.network.routers0.percent_links_utilized            0                      
system.ruby.network.routers1.percent_links_utilized            0                      
system.ruby.network.routers2.percent_links_utilized     0.142753                      
system.ruby.network.routers2.msg_count.Control::0        64370                      
system.ruby.network.routers2.msg_count.Request_Control::2         1394                      
system.ruby.network.routers2.msg_count.Response_Data::1        67144                      
system.ruby.network.routers2.msg_count.Response_Control::1        61995                      
system.ruby.network.routers2.msg_count.Response_Control::2        64367                      
system.ruby.network.routers2.msg_count.Writeback_Data::0        61610                      
system.ruby.network.routers2.msg_count.Writeback_Control::0          363                      
system.ruby.network.routers2.msg_bytes.Control::0       514960                      
system.ruby.network.routers2.msg_bytes.Request_Control::2        11152                      
system.ruby.network.routers2.msg_bytes.Response_Data::1      4834368                      
system.ruby.network.routers2.msg_bytes.Response_Control::1       495960                      
system.ruby.network.routers2.msg_bytes.Response_Control::2       514936                      
system.ruby.network.routers2.msg_bytes.Writeback_Data::0      4435920                      
system.ruby.network.routers2.msg_bytes.Writeback_Control::0         2904                      
system.ruby.network.routers3.percent_links_utilized     0.091120                      
system.ruby.network.routers3.msg_count.Control::0        66129                      
system.ruby.network.routers3.msg_count.Request_Control::2           17                      
system.ruby.network.routers3.msg_count.Response_Data::1        66141                      
system.ruby.network.routers3.msg_count.Response_Control::1        62019                      
system.ruby.network.routers3.msg_count.Response_Control::2        64129                      
system.ruby.network.routers3.msg_count.Writeback_Data::0         1620                      
system.ruby.network.routers3.msg_count.Writeback_Control::0        60386                      
system.ruby.network.routers3.msg_bytes.Control::0       529032                      
system.ruby.network.routers3.msg_bytes.Request_Control::2          136                      
system.ruby.network.routers3.msg_bytes.Response_Data::1      4762152                      
system.ruby.network.routers3.msg_bytes.Response_Control::1       496152                      
system.ruby.network.routers3.msg_bytes.Response_Control::2       513032                      
system.ruby.network.routers3.msg_bytes.Writeback_Data::0       116640                      
system.ruby.network.routers3.msg_bytes.Writeback_Control::0       483088                      
system.ruby.network.routers4.percent_links_utilized     0.298497                      
system.ruby.network.routers4.msg_count.Control::0       194193                      
system.ruby.network.routers4.msg_count.Request_Control::2         1411                      
system.ruby.network.routers4.msg_count.Response_Data::1       194180                      
system.ruby.network.routers4.msg_count.Response_Control::1       123990                      
system.ruby.network.routers4.msg_count.Response_Control::2       128496                      
system.ruby.network.routers4.msg_count.Writeback_Data::0        63230                      
system.ruby.network.routers4.msg_count.Writeback_Control::0        60749                      
system.ruby.network.routers4.msg_bytes.Control::0      1553544                      
system.ruby.network.routers4.msg_bytes.Request_Control::2        11288                      
system.ruby.network.routers4.msg_bytes.Response_Data::1     13980960                      
system.ruby.network.routers4.msg_bytes.Response_Control::1       991920                      
system.ruby.network.routers4.msg_bytes.Response_Control::2      1027968                      
system.ruby.network.routers4.msg_bytes.Writeback_Data::0      4552560                      
system.ruby.network.routers4.msg_bytes.Writeback_Control::0       485992                      
system.ruby.network.routers5.percent_links_utilized     0.067288                      
system.ruby.network.routers5.msg_count.Control::0        63694                      
system.ruby.network.routers5.msg_count.Response_Data::1        63694                      
system.ruby.network.routers5.msg_bytes.Control::0       509552                      
system.ruby.network.routers5.msg_bytes.Response_Data::1      4585968                      
system.ruby.network.routers6.percent_links_utilized     0.099943                      
system.ruby.network.routers6.msg_count.Control::0       194193                      
system.ruby.network.routers6.msg_count.Request_Control::2         1411                      
system.ruby.network.routers6.msg_count.Response_Data::1       195580                      
system.ruby.network.routers6.msg_count.Response_Control::1       124002                      
system.ruby.network.routers6.msg_count.Response_Control::2       128496                      
system.ruby.network.routers6.msg_count.Writeback_Data::0        63230                      
system.ruby.network.routers6.msg_count.Writeback_Control::0        60749                      
system.ruby.network.routers6.msg_bytes.Control::0      1553544                      
system.ruby.network.routers6.msg_bytes.Request_Control::2        11288                      
system.ruby.network.routers6.msg_bytes.Response_Data::1     14081760                      
system.ruby.network.routers6.msg_bytes.Response_Control::1       992016                      
system.ruby.network.routers6.msg_bytes.Response_Control::2      1027968                      
system.ruby.network.routers6.msg_bytes.Writeback_Data::0      4552560                      
system.ruby.network.routers6.msg_bytes.Writeback_Control::0       485992                      
system.ruby.network.msg_count.Control          582579                      
system.ruby.network.msg_count.Request_Control         4233                      
system.ruby.network.msg_count.Response_Data       586739                      
system.ruby.network.msg_count.Response_Control       757494                      
system.ruby.network.msg_count.Writeback_Data       189690                      
system.ruby.network.msg_count.Writeback_Control       182247                      
system.ruby.network.msg_byte.Control          4660632                      
system.ruby.network.msg_byte.Request_Control        33864                      
system.ruby.network.msg_byte.Response_Data     42245208                      
system.ruby.network.msg_byte.Response_Control      6059952                      
system.ruby.network.msg_byte.Writeback_Data     13657680                      
system.ruby.network.msg_byte.Writeback_Control      1457976                      
system.ruby.network.routers0.throttle0.link_utilization            0                      
system.ruby.network.routers0.throttle1.link_utilization            0                      
system.ruby.network.routers1.throttle0.link_utilization            0                      
system.ruby.network.routers1.throttle1.link_utilization            0                      
system.ruby.network.routers2.throttle0.link_utilization     0.135778                      
system.ruby.network.routers2.throttle0.msg_count.Request_Control::2         1394                      
system.ruby.network.routers2.throttle0.msg_count.Response_Data::1        64360                      
system.ruby.network.routers2.throttle0.msg_count.Response_Control::1        61993                      
system.ruby.network.routers2.throttle0.msg_bytes.Request_Control::2        11152                      
system.ruby.network.routers2.throttle0.msg_bytes.Response_Data::1      4633920                      
system.ruby.network.routers2.throttle0.msg_bytes.Response_Control::1       495944                      
system.ruby.network.routers2.throttle1.link_utilization     0.149727                      
system.ruby.network.routers2.throttle1.msg_count.Control::0        64370                      
system.ruby.network.routers2.throttle1.msg_count.Response_Data::1         2784                      
system.ruby.network.routers2.throttle1.msg_count.Response_Control::1            2                      
system.ruby.network.routers2.throttle1.msg_count.Response_Control::2        64367                      
system.ruby.network.routers2.throttle1.msg_count.Writeback_Data::0        61610                      
system.ruby.network.routers2.throttle1.msg_count.Writeback_Control::0          363                      
system.ruby.network.routers2.throttle1.msg_bytes.Control::0       514960                      
system.ruby.network.routers2.throttle1.msg_bytes.Response_Data::1       200448                      
system.ruby.network.routers2.throttle1.msg_bytes.Response_Control::1           16                      
system.ruby.network.routers2.throttle1.msg_bytes.Response_Control::2       514936                      
system.ruby.network.routers2.throttle1.msg_bytes.Writeback_Data::0      4435920                      
system.ruby.network.routers2.throttle1.msg_bytes.Writeback_Control::0         2904                      
system.ruby.network.routers3.throttle0.link_utilization     0.138853                      
system.ruby.network.routers3.throttle0.msg_count.Request_Control::2           17                      
system.ruby.network.routers3.throttle0.msg_count.Response_Data::1        66128                      
system.ruby.network.routers3.throttle0.msg_count.Response_Control::1        62009                      
system.ruby.network.routers3.throttle0.msg_bytes.Request_Control::2          136                      
system.ruby.network.routers3.throttle0.msg_bytes.Response_Data::1      4761216                      
system.ruby.network.routers3.throttle0.msg_bytes.Response_Control::1       496072                      
system.ruby.network.routers3.throttle1.link_utilization     0.043388                      
system.ruby.network.routers3.throttle1.msg_count.Control::0        66129                      
system.ruby.network.routers3.throttle1.msg_count.Response_Data::1           13                      
system.ruby.network.routers3.throttle1.msg_count.Response_Control::1           10                      
system.ruby.network.routers3.throttle1.msg_count.Response_Control::2        64129                      
system.ruby.network.routers3.throttle1.msg_count.Writeback_Data::0         1620                      
system.ruby.network.routers3.throttle1.msg_count.Writeback_Control::0        60386                      
system.ruby.network.routers3.throttle1.msg_bytes.Control::0       529032                      
system.ruby.network.routers3.throttle1.msg_bytes.Response_Data::1          936                      
system.ruby.network.routers3.throttle1.msg_bytes.Response_Control::1           80                      
system.ruby.network.routers3.throttle1.msg_bytes.Response_Control::2       513032                      
system.ruby.network.routers3.throttle1.msg_bytes.Writeback_Data::0       116640                      
system.ruby.network.routers3.throttle1.msg_bytes.Writeback_Control::0       483088                      
system.ruby.network.routers4.throttle0.link_utilization     0.311571                      
system.ruby.network.routers4.throttle0.msg_count.Control::0       130499                      
system.ruby.network.routers4.throttle0.msg_count.Response_Data::1        65092                      
system.ruby.network.routers4.throttle0.msg_count.Response_Control::2       128496                      
system.ruby.network.routers4.throttle0.msg_count.Writeback_Data::0        63230                      
system.ruby.network.routers4.throttle0.msg_count.Writeback_Control::0        60749                      
system.ruby.network.routers4.throttle0.msg_bytes.Control::0      1043992                      
system.ruby.network.routers4.throttle0.msg_bytes.Response_Data::1      4686624                      
system.ruby.network.routers4.throttle0.msg_bytes.Response_Control::2      1027968                      
system.ruby.network.routers4.throttle0.msg_bytes.Writeback_Data::0      4552560                      
system.ruby.network.routers4.throttle0.msg_bytes.Writeback_Control::0       485992                      
system.ruby.network.routers4.throttle1.link_utilization     0.285424                      
system.ruby.network.routers4.throttle1.msg_count.Control::0        63694                      
system.ruby.network.routers4.throttle1.msg_count.Request_Control::2         1411                      
system.ruby.network.routers4.throttle1.msg_count.Response_Data::1       129088                      
system.ruby.network.routers4.throttle1.msg_count.Response_Control::1       123990                      
system.ruby.network.routers4.throttle1.msg_bytes.Control::0       509552                      
system.ruby.network.routers4.throttle1.msg_bytes.Request_Control::2        11288                      
system.ruby.network.routers4.throttle1.msg_bytes.Response_Data::1      9294336                      
system.ruby.network.routers4.throttle1.msg_bytes.Response_Control::1       991920                      
system.ruby.network.routers5.throttle0.link_utilization     0.013458                      
system.ruby.network.routers5.throttle0.msg_count.Control::0        63694                      
system.ruby.network.routers5.throttle0.msg_bytes.Control::0       509552                      
system.ruby.network.routers5.throttle1.link_utilization     0.121119                      
system.ruby.network.routers5.throttle1.msg_count.Response_Data::1        63694                      
system.ruby.network.routers5.throttle1.msg_bytes.Response_Data::1      4585968                      
system.ruby.network.routers6.throttle0.link_utilization            0                      
system.ruby.network.routers6.throttle1.link_utilization            0                      
system.ruby.network.routers6.throttle2.link_utilization     0.135778                      
system.ruby.network.routers6.throttle2.msg_count.Request_Control::2         1394                      
system.ruby.network.routers6.throttle2.msg_count.Response_Data::1        64360                      
system.ruby.network.routers6.throttle2.msg_count.Response_Control::1        61993                      
system.ruby.network.routers6.throttle2.msg_bytes.Request_Control::2        11152                      
system.ruby.network.routers6.throttle2.msg_bytes.Response_Data::1      4633920                      
system.ruby.network.routers6.throttle2.msg_bytes.Response_Control::1       495944                      
system.ruby.network.routers6.throttle3.link_utilization     0.138853                      
system.ruby.network.routers6.throttle3.msg_count.Request_Control::2           17                      
system.ruby.network.routers6.throttle3.msg_count.Response_Data::1        66128                      
system.ruby.network.routers6.throttle3.msg_count.Response_Control::1        62009                      
system.ruby.network.routers6.throttle3.msg_bytes.Request_Control::2          136                      
system.ruby.network.routers6.throttle3.msg_bytes.Response_Data::1      4761216                      
system.ruby.network.routers6.throttle3.msg_bytes.Response_Control::1       496072                      
system.ruby.network.routers6.throttle4.link_utilization     0.311571                      
system.ruby.network.routers6.throttle4.msg_count.Control::0       130499                      
system.ruby.network.routers6.throttle4.msg_count.Response_Data::1        65092                      
system.ruby.network.routers6.throttle4.msg_count.Response_Control::2       128496                      
system.ruby.network.routers6.throttle4.msg_count.Writeback_Data::0        63230                      
system.ruby.network.routers6.throttle4.msg_count.Writeback_Control::0        60749                      
system.ruby.network.routers6.throttle4.msg_bytes.Control::0      1043992                      
system.ruby.network.routers6.throttle4.msg_bytes.Response_Data::1      4686624                      
system.ruby.network.routers6.throttle4.msg_bytes.Response_Control::2      1027968                      
system.ruby.network.routers6.throttle4.msg_bytes.Writeback_Data::0      4552560                      
system.ruby.network.routers6.throttle4.msg_bytes.Writeback_Control::0       485992                      
system.ruby.network.routers6.throttle5.link_utilization     0.013458                      
system.ruby.network.routers6.throttle5.msg_count.Control::0        63694                      
system.ruby.network.routers6.throttle5.msg_bytes.Control::0       509552                      
system.ruby.delayVCHist.vnet_0::bucket_size            2                       # delay histogram for vnet_0
system.ruby.delayVCHist.vnet_0::max_bucket           19                       # delay histogram for vnet_0
system.ruby.delayVCHist.vnet_0::samples        382974                       # delay histogram for vnet_0
system.ruby.delayVCHist.vnet_0::mean         1.323886                       # delay histogram for vnet_0
system.ruby.delayVCHist.vnet_0::stdev        2.982175                       # delay histogram for vnet_0
system.ruby.delayVCHist.vnet_0           |      319738     83.49%     83.49% |          12      0.00%     83.49% |           0      0.00%     83.49% |           0      0.00%     83.49% |       63085     16.47%     99.96% |          24      0.01%     99.97% |           0      0.00%     99.97% |           0      0.00%     99.97% |           0      0.00%     99.97% |         115      0.03%    100.00% # delay histogram for vnet_0
system.ruby.delayVCHist.vnet_0::total          382974                       # delay histogram for vnet_0
system.ruby.delayVCHist.vnet_1::bucket_size            1                       # delay histogram for vnet_1
system.ruby.delayVCHist.vnet_1::max_bucket            9                       # delay histogram for vnet_1
system.ruby.delayVCHist.vnet_1::samples        465615                       # delay histogram for vnet_1
system.ruby.delayVCHist.vnet_1::mean         0.024020                       # delay histogram for vnet_1
system.ruby.delayVCHist.vnet_1::stdev        0.437701                       # delay histogram for vnet_1
system.ruby.delayVCHist.vnet_1           |      464217     99.70%     99.70% |           0      0.00%     99.70% |           0      0.00%     99.70% |           0      0.00%     99.70% |           0      0.00%     99.70% |           0      0.00%     99.70% |           0      0.00%     99.70% |           0      0.00%     99.70% |        1398      0.30%    100.00% |           0      0.00%    100.00% # delay histogram for vnet_1
system.ruby.delayVCHist.vnet_1::total          465615                       # delay histogram for vnet_1
system.ruby.delayVCHist.vnet_2::bucket_size            1                       # delay histogram for vnet_2
system.ruby.delayVCHist.vnet_2::max_bucket            9                       # delay histogram for vnet_2
system.ruby.delayVCHist.vnet_2::samples          6941                       # delay histogram for vnet_2
system.ruby.delayVCHist.vnet_2::mean         0.107333                       # delay histogram for vnet_2
system.ruby.delayVCHist.vnet_2::stdev        0.724722                       # delay histogram for vnet_2
system.ruby.delayVCHist.vnet_2           |        6792     97.85%     97.85% |           0      0.00%     97.85% |           0      0.00%     97.85% |           0      0.00%     97.85% |           0      0.00%     97.85% |         149      2.15%    100.00% |           0      0.00%    100.00% |           0      0.00%    100.00% |           0      0.00%    100.00% |           0      0.00%    100.00% # delay histogram for vnet_2
system.ruby.delayVCHist.vnet_2::total            6941                       # delay histogram for vnet_2
system.ruby.LD.latency_hist::bucket_size          128                      
system.ruby.LD.latency_hist::max_bucket          1279                      
system.ruby.LD.latency_hist::samples         16891239                      
system.ruby.LD.latency_hist::mean            1.085054                      
system.ruby.LD.latency_hist::gmean           1.013493                      
system.ruby.LD.latency_hist::stdev           1.389751                      
system.ruby.LD.latency_hist              |    16891128    100.00%    100.00% |         110      0.00%    100.00% |           0      0.00%    100.00% |           0      0.00%    100.00% |           0      0.00%    100.00% |           1      0.00%    100.00% |           0      0.00%    100.00% |           0      0.00%    100.00% |           0      0.00%    100.00% |           0      0.00%    100.00%
system.ruby.LD.latency_hist::total           16891239                      
system.ruby.LD.hit_latency_hist::bucket_size          128                      
system.ruby.LD.hit_latency_hist::max_bucket         1279                      
system.ruby.LD.hit_latency_hist::samples     16891239                      
system.ruby.LD.hit_latency_hist::mean        1.085054                      
system.ruby.LD.hit_latency_hist::gmean       1.013493                      
system.ruby.LD.hit_latency_hist::stdev       1.389751                      
system.ruby.LD.hit_latency_hist          |    16891128    100.00%    100.00% |         110      0.00%    100.00% |           0      0.00%    100.00% |           0      0.00%    100.00% |           0      0.00%    100.00% |           1      0.00%    100.00% |           0      0.00%    100.00% |           0      0.00%    100.00% |           0      0.00%    100.00% |           0      0.00%    100.00%
system.ruby.LD.hit_latency_hist::total       16891239                      
system.ruby.ST.latency_hist::bucket_size          128                      
system.ruby.ST.latency_hist::max_bucket          1279                      
system.ruby.ST.latency_hist::samples          8824404                      
system.ruby.ST.latency_hist::mean            1.979882                      
system.ruby.ST.latency_hist::gmean           1.035094                      
system.ruby.ST.latency_hist::stdev          13.518532                      
system.ruby.ST.latency_hist              |     8809137     99.83%     99.83% |       13246      0.15%     99.98% |          30      0.00%     99.98% |         150      0.00%     99.98% |        1587      0.02%    100.00% |         254      0.00%    100.00% |           0      0.00%    100.00% |           0      0.00%    100.00% |           0      0.00%    100.00% |           0      0.00%    100.00%
system.ruby.ST.latency_hist::total            8824404                      
system.ruby.ST.hit_latency_hist::bucket_size          128                      
system.ruby.ST.hit_latency_hist::max_bucket         1279                      
system.ruby.ST.hit_latency_hist::samples      8824404                      
system.ruby.ST.hit_latency_hist::mean        1.979882                      
system.ruby.ST.hit_latency_hist::gmean       1.035094                      
system.ruby.ST.hit_latency_hist::stdev      13.518532                      
system.ruby.ST.hit_latency_hist          |     8809137     99.83%     99.83% |       13246      0.15%     99.98% |          30      0.00%     99.98% |         150      0.00%     99.98% |        1587      0.02%    100.00% |         254      0.00%    100.00% |           0      0.00%    100.00% |           0      0.00%    100.00% |           0      0.00%    100.00% |           0      0.00%    100.00%
system.ruby.ST.hit_latency_hist::total        8824404                      
system.ruby.IFETCH.latency_hist::bucket_size          128                      
system.ruby.IFETCH.latency_hist::max_bucket         1279                      
system.ruby.IFETCH.latency_hist::samples     89184490                      
system.ruby.IFETCH.latency_hist::mean        1.002029                      
system.ruby.IFETCH.latency_hist::gmean       1.000108                      
system.ruby.IFETCH.latency_hist::stdev       0.523757                      
system.ruby.IFETCH.latency_hist          |    89184215    100.00%    100.00% |         259      0.00%    100.00% |           1      0.00%    100.00% |           0      0.00%    100.00% |           9      0.00%    100.00% |           6      0.00%    100.00% |           0      0.00%    100.00% |           0      0.00%    100.00% |           0      0.00%    100.00% |           0      0.00%    100.00%
system.ruby.IFETCH.latency_hist::total       89184490                      
system.ruby.IFETCH.hit_latency_hist::bucket_size          128                      
system.ruby.IFETCH.hit_latency_hist::max_bucket         1279                      
system.ruby.IFETCH.hit_latency_hist::samples     89184490                      
system.ruby.IFETCH.hit_latency_hist::mean     1.002029                      
system.ruby.IFETCH.hit_latency_hist::gmean     1.000108                      
system.ruby.IFETCH.hit_latency_hist::stdev     0.523757                      
system.ruby.IFETCH.hit_latency_hist      |    89184215    100.00%    100.00% |         259      0.00%    100.00% |           1      0.00%    100.00% |           0      0.00%    100.00% |           9      0.00%    100.00% |           6      0.00%    100.00% |           0      0.00%    100.00% |           0      0.00%    100.00% |           0      0.00%    100.00% |           0      0.00%    100.00%
system.ruby.IFETCH.hit_latency_hist::total     89184490                      
system.ruby.RMW_Read.latency_hist::bucket_size            4                      
system.ruby.RMW_Read.latency_hist::max_bucket           39                      
system.ruby.RMW_Read.latency_hist::samples          375                      
system.ruby.RMW_Read.latency_hist::mean      1.482667                      
system.ruby.RMW_Read.latency_hist::gmean     1.071197                      
system.ruby.RMW_Read.latency_hist::stdev     3.443058                      
system.ruby.RMW_Read.latency_hist        |         366     97.60%     97.60% |           2      0.53%     98.13% |           0      0.00%     98.13% |           0      0.00%     98.13% |           0      0.00%     98.13% |           4      1.07%     99.20% |           0      0.00%     99.20% |           1      0.27%     99.47% |           2      0.53%    100.00% |           0      0.00%    100.00%
system.ruby.RMW_Read.latency_hist::total          375                      
system.ruby.RMW_Read.hit_latency_hist::bucket_size            4                      
system.ruby.RMW_Read.hit_latency_hist::max_bucket           39                      
system.ruby.RMW_Read.hit_latency_hist::samples          375                      
system.ruby.RMW_Read.hit_latency_hist::mean     1.482667                      
system.ruby.RMW_Read.hit_latency_hist::gmean     1.071197                      
system.ruby.RMW_Read.hit_latency_hist::stdev     3.443058                      
system.ruby.RMW_Read.hit_latency_hist    |         366     97.60%     97.60% |           2      0.53%     98.13% |           0      0.00%     98.13% |           0      0.00%     98.13% |           0      0.00%     98.13% |           4      1.07%     99.20% |           0      0.00%     99.20% |           1      0.27%     99.47% |           2      0.53%    100.00% |           0      0.00%    100.00%
system.ruby.RMW_Read.hit_latency_hist::total          375                      
system.ruby.Locked_RMW_Read.latency_hist::bucket_size           32                      
system.ruby.Locked_RMW_Read.latency_hist::max_bucket          319                      
system.ruby.Locked_RMW_Read.latency_hist::samples      2045297                      
system.ruby.Locked_RMW_Read.latency_hist::mean     1.000232                      
system.ruby.Locked_RMW_Read.latency_hist::gmean     1.000018                      
system.ruby.Locked_RMW_Read.latency_hist::stdev     0.159170                      
system.ruby.Locked_RMW_Read.latency_hist |     2045295    100.00%    100.00% |           0      0.00%    100.00% |           0      0.00%    100.00% |           0      0.00%    100.00% |           1      0.00%    100.00% |           1      0.00%    100.00% |           0      0.00%    100.00% |           0      0.00%    100.00% |           0      0.00%    100.00% |           0      0.00%    100.00%
system.ruby.Locked_RMW_Read.latency_hist::total      2045297                      
system.ruby.Locked_RMW_Read.hit_latency_hist::bucket_size           32                      
system.ruby.Locked_RMW_Read.hit_latency_hist::max_bucket          319                      
system.ruby.Locked_RMW_Read.hit_latency_hist::samples      2045297                      
system.ruby.Locked_RMW_Read.hit_latency_hist::mean     1.000232                      
system.ruby.Locked_RMW_Read.hit_latency_hist::gmean     1.000018                      
system.ruby.Locked_RMW_Read.hit_latency_hist::stdev     0.159170                      
[...]
system.ruby.L0Cache_Controller.Load::total     16891239                      
system.ruby.L0Cache_Controller.Ifetch    |    85483552     95.85%     95.85% |     3700938      4.15%    100.00%
system.ruby.L0Cache_Controller.Ifetch::total     89184490                      
system.ruby.L0Cache_Controller.Store     |    12890549     99.81%     99.81% |       24824      0.19%    100.00%
system.ruby.L0Cache_Controller.Store::total     12915373                      
system.ruby.L0Cache_Controller.Inv       |        1998     36.13%     36.13% |        3532     63.87%    100.00%
system.ruby.L0Cache_Controller.Inv::total         5530                      
system.ruby.L0Cache_Controller.L0_Replacement |       61904     43.65%     43.65% |       79911     56.35%    100.00%
system.ruby.L0Cache_Controller.L0_Replacement::total       141815                      
system.ruby.L0Cache_Controller.Data      |          18      0.13%      0.13% |       14005     99.87%    100.00%
system.ruby.L0Cache_Controller.Data::total        14023                      
system.ruby.L0Cache_Controller.Data_Exclusive |       64501     48.86%     48.86% |       67509     51.14%    100.00%
system.ruby.L0Cache_Controller.Data_Exclusive::total       132010                      
system.ruby.L0Cache_Controller.NP.Load   |         758      0.94%      0.94% |       80193     99.06%    100.00%
system.ruby.L0Cache_Controller.NP.Load::total        80951                      
system.ruby.L0Cache_Controller.NP.Ifetch |        2057     84.44%     84.44% |         379     15.56%    100.00%
system.ruby.L0Cache_Controller.NP.Ifetch::total         2436                      
system.ruby.L0Cache_Controller.NP.Store  |       61694     98.50%     98.50% |         941      1.50%    100.00%
system.ruby.L0Cache_Controller.NP.Store::total        62635                      
system.ruby.L0Cache_Controller.NP.Inv    |           2      0.09%      0.09% |        2176     99.91%    100.00%
system.ruby.L0Cache_Controller.NP.Inv::total         2178                      
system.ruby.L0Cache_Controller.S.Load    |      643491     67.15%     67.15% |      314731     32.85%    100.00%
system.ruby.L0Cache_Controller.S.Load::total       958222                      
system.ruby.L0Cache_Controller.S.Ifetch  |          25     13.09%     13.09% |         166     86.91%    100.00%
system.ruby.L0Cache_Controller.S.Ifetch::total          191                      
system.ruby.L0Cache_Controller.S.Store   |          10     90.91%     90.91% |           1      9.09%    100.00%
system.ruby.L0Cache_Controller.S.Store::total           11                      
system.ruby.L0Cache_Controller.S.Inv     |           1      3.03%      3.03% |          32     96.97%    100.00%
system.ruby.L0Cache_Controller.S.Inv::total           33                      
system.ruby.L0Cache_Controller.S.L0_Replacement |           6      0.04%      0.04% |       13770     99.96%    100.00%
system.ruby.L0Cache_Controller.S.L0_Replacement::total        13776                      
system.ruby.L0Cache_Controller.E.Load    |     2052965     69.23%     69.23% |      912457     30.77%    100.00%
system.ruby.L0Cache_Controller.E.Load::total      2965422                      
system.ruby.L0Cache_Controller.E.Ifetch  |    85481470     95.85%     95.85% |     3700393      4.15%    100.00%
system.ruby.L0Cache_Controller.E.Ifetch::total     89181863                      
system.ruby.L0Cache_Controller.E.Store   |         329     81.23%     81.23% |          76     18.77%    100.00%
system.ruby.L0Cache_Controller.E.Store::total          405                      
system.ruby.L0Cache_Controller.E.Inv     |        1435     54.94%     54.94% |        1177     45.06%    100.00%
system.ruby.L0Cache_Controller.E.Inv::total         2612                      
system.ruby.L0Cache_Controller.E.L0_Replacement |         515      0.78%      0.78% |       65298     99.22%    100.00%
system.ruby.L0Cache_Controller.E.L0_Replacement::total        65813                      
system.ruby.L0Cache_Controller.M.Load    |    12874277     99.90%     99.90% |       12367      0.10%    100.00%
system.ruby.L0Cache_Controller.M.Load::total     12886644                      
system.ruby.L0Cache_Controller.M.Store   |    12828516     99.81%     99.81% |       23806      0.19%    100.00%
system.ruby.L0Cache_Controller.M.Store::total     12852322                      
system.ruby.L0Cache_Controller.M.Inv     |         560     79.21%     79.21% |         147     20.79%    100.00%
system.ruby.L0Cache_Controller.M.Inv::total          707                      
system.ruby.L0Cache_Controller.M.L0_Replacement |       61383     98.65%     98.65% |         843      1.35%    100.00%
system.ruby.L0Cache_Controller.M.L0_Replacement::total        62226                      
system.ruby.L0Cache_Controller.IS.Data   |          18      0.13%      0.13% |       14005     99.87%    100.00%
system.ruby.L0Cache_Controller.IS.Data::total        14023                      
system.ruby.L0Cache_Controller.IS.Data_Exclusive |        2797      4.03%      4.03% |       66567     95.97%    100.00%
system.ruby.L0Cache_Controller.IS.Data_Exclusive::total        69364                      
system.ruby.L0Cache_Controller.IM.Data_Exclusive |       61694     98.50%     98.50% |         941      1.50%    100.00%
system.ruby.L0Cache_Controller.IM.Data_Exclusive::total        62635                      
system.ruby.L0Cache_Controller.SM.Data_Exclusive |          10     90.91%     90.91% |           1      9.09%    100.00%
system.ruby.L0Cache_Controller.SM.Data_Exclusive::total           11                      
system.ruby.L1Cache_Controller.Load      |        2815      3.38%      3.38% |       80572     96.62%    100.00%
system.ruby.L1Cache_Controller.Load::total        83387                      
system.ruby.L1Cache_Controller.Store     |       61704     98.50%     98.50% |         942      1.50%    100.00%
system.ruby.L1Cache_Controller.Store::total        62646                      
system.ruby.L1Cache_Controller.WriteBack |       61898     48.34%     48.34% |       66141     51.66%    100.00%
system.ruby.L1Cache_Controller.WriteBack::total       128039                      
system.ruby.L1Cache_Controller.L0_DataAck |         560     79.21%     79.21% |         147     20.79%    100.00%
system.ruby.L1Cache_Controller.L0_DataAck::total          707                      
system.ruby.L1Cache_Controller.Inv       |           2     16.67%     16.67% |          10     83.33%    100.00%
system.ruby.L1Cache_Controller.Inv::total           12                      
system.ruby.L1Cache_Controller.L0_Invalidate_Own |        3724     34.60%     34.60% |        7040     65.40%    100.00%
system.ruby.L1Cache_Controller.L0_Invalidate_Own::total        10764                      
system.ruby.L1Cache_Controller.L0_Invalidate_Else |         272     91.28%     91.28% |          26      8.72%    100.00%
system.ruby.L1Cache_Controller.L0_Invalidate_Else::total          298                      
system.ruby.L1Cache_Controller.L1_Replacement |       62438     49.30%     49.30% |       64208     50.70%    100.00%
system.ruby.L1Cache_Controller.L1_Replacement::total       126646                      
system.ruby.L1Cache_Controller.Fwd_GETX  |           0      0.00%      0.00% |           1    100.00%    100.00%
system.ruby.L1Cache_Controller.Fwd_GETX::total            1                      
system.ruby.L1Cache_Controller.Fwd_GETS  |        1392     99.57%     99.57% |           6      0.43%    100.00%
system.ruby.L1Cache_Controller.Fwd_GETS::total         1398                      
system.ruby.L1Cache_Controller.Data      |           0      0.00%      0.00% |           1    100.00%    100.00%
system.ruby.L1Cache_Controller.Data::total            1                      
system.ruby.L1Cache_Controller.Data_Exclusive |        2685      4.15%      4.15% |       61947     95.85%    100.00%
system.ruby.L1Cache_Controller.Data_Exclusive::total        64632                      
system.ruby.L1Cache_Controller.DataS_fromL1 |           6      0.43%      0.43% |        1392     99.57%    100.00%
system.ruby.L1Cache_Controller.DataS_fromL1::total         1398                      
system.ruby.L1Cache_Controller.Data_all_Acks |       61669     95.67%     95.67% |        2788      4.33%    100.00%
system.ruby.L1Cache_Controller.Data_all_Acks::total        64457                      
system.ruby.L1Cache_Controller.L0_Ack    |        1438     29.82%     29.82% |        3385     70.18%    100.00%
system.ruby.L1Cache_Controller.L0_Ack::total         4823                      
system.ruby.L1Cache_Controller.Ack       |          10     90.91%     90.91% |           1      9.09%    100.00%
system.ruby.L1Cache_Controller.Ack::total           11                      
system.ruby.L1Cache_Controller.Ack_all   |          10     83.33%     83.33% |           2     16.67%    100.00%
system.ruby.L1Cache_Controller.Ack_all::total           12                      
system.ruby.L1Cache_Controller.WB_Ack    |       61973     49.99%     49.99% |       62006     50.01%    100.00%
system.ruby.L1Cache_Controller.WB_Ack::total       123979                      
system.ruby.L1Cache_Controller.NP.Load   |        2694      3.96%      3.96% |       65339     96.04%    100.00%
system.ruby.L1Cache_Controller.NP.Load::total        68033                      
system.ruby.L1Cache_Controller.NP.Store  |       61666     98.74%     98.74% |         789      1.26%    100.00%
system.ruby.L1Cache_Controller.NP.Store::total        62455                      
system.ruby.L1Cache_Controller.NP.Inv    |           0      0.00%      0.00% |           1    100.00%    100.00%
system.ruby.L1Cache_Controller.NP.Inv::total            1                      
system.ruby.L1Cache_Controller.S.Load    |           0      0.00%      0.00% |       10613    100.00%    100.00%
system.ruby.L1Cache_Controller.S.Load::total        10613                      
system.ruby.L1Cache_Controller.S.Store   |          10     90.91%     90.91% |           1      9.09%    100.00%
system.ruby.L1Cache_Controller.S.Store::total           11                      
system.ruby.L1Cache_Controller.S.L0_Invalidate_Own |           2      0.09%      0.09% |        2202     99.91%    100.00%
system.ruby.L1Cache_Controller.S.L0_Invalidate_Own::total         2204                      
system.ruby.L1Cache_Controller.S.L0_Invalidate_Else |           1     14.29%     14.29% |           6     85.71%    100.00%
system.ruby.L1Cache_Controller.S.L0_Invalidate_Else::total            7                      
system.ruby.L1Cache_Controller.SS.Load   |           9    100.00%    100.00% |           0      0.00%    100.00%
system.ruby.L1Cache_Controller.SS.Load::total            9                      
system.ruby.L1Cache_Controller.SS.Inv    |           2     18.18%     18.18% |           9     81.82%    100.00%
system.ruby.L1Cache_Controller.SS.Inv::total           11                      
system.ruby.L1Cache_Controller.SS.L1_Replacement |         465     17.44%     17.44% |        2202     82.56%    100.00%
system.ruby.L1Cache_Controller.SS.L1_Replacement::total         2667                      
system.ruby.L1Cache_Controller.E.WriteBack |         541      0.88%      0.88% |       60701     99.12%    100.00%
system.ruby.L1Cache_Controller.E.WriteBack::total        61242                      
system.ruby.L1Cache_Controller.E.L0_Invalidate_Own |        1606     56.69%     56.69% |        1227     43.31%    100.00%
system.ruby.L1Cache_Controller.E.L0_Invalidate_Own::total         2833                      
system.ruby.L1Cache_Controller.E.L0_Invalidate_Else |           9     81.82%     81.82% |           2     18.18%    100.00%
system.ruby.L1Cache_Controller.E.L0_Invalidate_Else::total           11                      
system.ruby.L1Cache_Controller.EE.L1_Replacement |        1387     54.41%     54.41% |        1162     45.59%    100.00%
system.ruby.L1Cache_Controller.EE.L1_Replacement::total         2549                      
system.ruby.L1Cache_Controller.EE.Fwd_GETS |           7     77.78%     77.78% |           2     22.22%    100.00%
system.ruby.L1Cache_Controller.EE.Fwd_GETS::total            9                      
system.ruby.L1Cache_Controller.M.WriteBack |       61357     91.86%     91.86% |        5440      8.14%    100.00%
system.ruby.L1Cache_Controller.M.WriteBack::total        66797                      
system.ruby.L1Cache_Controller.M.L0_Invalidate_Own |         254     73.84%     73.84% |          90     26.16%    100.00%
system.ruby.L1Cache_Controller.M.L0_Invalidate_Own::total          344                      
system.ruby.L1Cache_Controller.M.L0_Invalidate_Else |         126     96.18%     96.18% |           5      3.82%    100.00%
system.ruby.L1Cache_Controller.M.L0_Invalidate_Else::total          131                      
system.ruby.L1Cache_Controller.MM.Load   |         112      2.37%      2.37% |        4620     97.63%    100.00%
system.ruby.L1Cache_Controller.MM.Load::total         4732                      
system.ruby.L1Cache_Controller.MM.Store  |          28     15.56%     15.56% |         152     84.44%    100.00%
system.ruby.L1Cache_Controller.MM.Store::total          180                      
system.ruby.L1Cache_Controller.MM.L1_Replacement |       60586     49.89%     49.89% |       60844     50.11%    100.00%
system.ruby.L1Cache_Controller.MM.L1_Replacement::total       121430                      
system.ruby.L1Cache_Controller.MM.Fwd_GETX |           0      0.00%      0.00% |           1    100.00%    100.00%
system.ruby.L1Cache_Controller.MM.Fwd_GETX::total            1                      
system.ruby.L1Cache_Controller.MM.Fwd_GETS |        1385     99.71%     99.71% |           4      0.29%    100.00%
system.ruby.L1Cache_Controller.MM.Fwd_GETS::total         1389                      
system.ruby.L1Cache_Controller.IS.Data_Exclusive |        2685      4.15%      4.15% |       61947     95.85%    100.00%
system.ruby.L1Cache_Controller.IS.Data_Exclusive::total        64632                      
system.ruby.L1Cache_Controller.IS.DataS_fromL1 |           6      0.43%      0.43% |        1392     99.57%    100.00%
system.ruby.L1Cache_Controller.IS.DataS_fromL1::total         1398                      
system.ruby.L1Cache_Controller.IS.Data_all_Acks |           3      0.15%      0.15% |        2000     99.85%    100.00%
system.ruby.L1Cache_Controller.IS.Data_all_Acks::total         2003                      
system.ruby.L1Cache_Controller.IM.Data   |           0      0.00%      0.00% |           1    100.00%    100.00%
system.ruby.L1Cache_Controller.IM.Data::total            1                      
system.ruby.L1Cache_Controller.IM.Data_all_Acks |       61666     98.74%     98.74% |         788      1.26%    100.00%
system.ruby.L1Cache_Controller.IM.Data_all_Acks::total        62454                      
system.ruby.L1Cache_Controller.SM.Ack    |          10     90.91%     90.91% |           1      9.09%    100.00%
system.ruby.L1Cache_Controller.SM.Ack::total           11                      
system.ruby.L1Cache_Controller.SM.Ack_all |          10     83.33%     83.33% |           2     16.67%    100.00%
system.ruby.L1Cache_Controller.SM.Ack_all::total           12                      
system.ruby.L1Cache_Controller.M_I.WB_Ack |       61973     49.99%     49.99% |       62006     50.01%    100.00%
system.ruby.L1Cache_Controller.M_I.WB_Ack::total       123979                      
system.ruby.L1Cache_Controller.S_IL0.L0_Invalidate_Own |           2      0.09%      0.09% |        2204     99.91%    100.00%
system.ruby.L1Cache_Controller.S_IL0.L0_Invalidate_Own::total         2206                      
system.ruby.L1Cache_Controller.S_IL0.L0_Invalidate_Else |           1     14.29%     14.29% |           6     85.71%    100.00%
system.ruby.L1Cache_Controller.S_IL0.L0_Invalidate_Else::total            7                      
system.ruby.L1Cache_Controller.S_IL0.L0_Ack |           3      0.14%      0.14% |        2208     99.86%    100.00%
system.ruby.L1Cache_Controller.S_IL0.L0_Ack::total         2211                      
system.ruby.L1Cache_Controller.E_IL0.L0_DataAck |         221     77.27%     77.27% |          65     22.73%    100.00%
system.ruby.L1Cache_Controller.E_IL0.L0_DataAck::total          286                      
system.ruby.L1Cache_Controller.E_IL0.L0_Invalidate_Own |        1606     56.69%     56.69% |        1227     43.31%    100.00%
system.ruby.L1Cache_Controller.E_IL0.L0_Invalidate_Own::total         2833                      
system.ruby.L1Cache_Controller.E_IL0.L0_Invalidate_Else |           9     81.82%     81.82% |           2     18.18%    100.00%
system.ruby.L1Cache_Controller.E_IL0.L0_Invalidate_Else::total           11                      
system.ruby.L1Cache_Controller.E_IL0.L0_Ack |        1394     54.50%     54.50% |        1164     45.50%    100.00%
system.ruby.L1Cache_Controller.E_IL0.L0_Ack::total         2558                      
system.ruby.L1Cache_Controller.M_IL0.L0_DataAck |         339     80.52%     80.52% |          82     19.48%    100.00%
system.ruby.L1Cache_Controller.M_IL0.L0_DataAck::total          421                      
system.ruby.L1Cache_Controller.M_IL0.L0_Invalidate_Own |         254     73.84%     73.84% |          90     26.16%    100.00%
system.ruby.L1Cache_Controller.M_IL0.L0_Invalidate_Own::total          344                      
system.ruby.L1Cache_Controller.M_IL0.L0_Invalidate_Else |         126     96.18%     96.18% |           5      3.82%    100.00%
system.ruby.L1Cache_Controller.M_IL0.L0_Invalidate_Else::total          131                      
system.ruby.L1Cache_Controller.M_IL0.L0_Ack |          41     75.93%     75.93% |          13     24.07%    100.00%
system.ruby.L1Cache_Controller.M_IL0.L0_Ack::total           54                      
system.ruby.L2Cache_Controller.L1_GETS          68033      0.00%      0.00%
system.ruby.L2Cache_Controller.L1_GETX          62455      0.00%      0.00%
system.ruby.L2Cache_Controller.L1_UPGRADE           11      0.00%      0.00%
system.ruby.L2Cache_Controller.L1_PUTX         123979      0.00%      0.00%
system.ruby.L2Cache_Controller.Mem_Data         63694      0.00%      0.00%
system.ruby.L2Cache_Controller.WB_Data           1398      0.00%      0.00%
system.ruby.L2Cache_Controller.Unblock           1398      0.00%      0.00%
system.ruby.L2Cache_Controller.Exclusive_Unblock       127098      0.00%      0.00%
system.ruby.L2Cache_Controller.NP.L1_GETS         1416      0.00%      0.00%
system.ruby.L2Cache_Controller.NP.L1_GETX        62278      0.00%      0.00%
system.ruby.L2Cache_Controller.SS.L1_GETS         2001      0.00%      0.00%
system.ruby.L2Cache_Controller.SS.L1_GETX            1      0.00%      0.00%
system.ruby.L2Cache_Controller.SS.L1_UPGRADE           11      0.00%      0.00%
system.ruby.L2Cache_Controller.M.L1_GETS        63217      0.00%      0.00%
system.ruby.L2Cache_Controller.M.L1_GETX          175      0.00%      0.00%
system.ruby.L2Cache_Controller.MT.L1_GETS         1398      0.00%      0.00%
system.ruby.L2Cache_Controller.MT.L1_GETX            1      0.00%      0.00%
system.ruby.L2Cache_Controller.MT.L1_PUTX       123979      0.00%      0.00%
system.ruby.L2Cache_Controller.ISS.L1_GETS            1      0.00%      0.00%
system.ruby.L2Cache_Controller.ISS.Mem_Data         1415      0.00%      0.00%
system.ruby.L2Cache_Controller.IS.Mem_Data            1      0.00%      0.00%
system.ruby.L2Cache_Controller.IM.Mem_Data        62278      0.00%      0.00%
system.ruby.L2Cache_Controller.SS_MB.Exclusive_Unblock           12      0.00%      0.00%
system.ruby.L2Cache_Controller.MT_MB.Exclusive_Unblock       127086      0.00%      0.00%
system.ruby.L2Cache_Controller.MT_IIB.WB_Data         1398      0.00%      0.00%
system.ruby.L2Cache_Controller.MT_SB.Unblock         1398      0.00%      0.00%

---------- End Simulation Statistics   ----------
