
---------- Begin Simulation Statistics ----------
sim_seconds                                  0.118455                       # Number of seconds simulated
sim_ticks                                118454504500                       # Number of ticks simulated
final_tick                               118454504500                       # Number of ticks from beginning of simulation (restored from checkpoints and never reset)
sim_freq                                 1000000000000                       # Frequency of simulated ticks
host_inst_rate                                  85242                       # Simulator instruction rate (inst/s)
host_op_rate                                   235050                       # Simulator op (including micro ops) rate (op/s)
host_tick_rate                              147261572                       # Simulator tick rate (ticks/s)
host_mem_usage                                 775552                       # Number of bytes of host memory used
host_seconds                                   804.38                       # Real time elapsed on the host
sim_insts                                    68567029                       # Number of instructions simulated
sim_ops                                     189070299                       # Number of ops (including micro ops) simulated
system.voltage_domain.voltage                       1                       # Voltage in Volts
system.clk_domain.clock                          1000                       # Clock period in ticks
system.mem_ctrls.bytes_read::ruby.dir_cntrl0      4076416                       # Number of bytes read from this memory
system.mem_ctrls.bytes_read::total            4076416                       # Number of bytes read from this memory
system.mem_ctrls.num_reads::ruby.dir_cntrl0        63694                       # Number of read requests responded to by this memory
system.mem_ctrls.num_reads::total               63694                       # Number of read requests responded to by this memory
system.mem_ctrls.bw_read::ruby.dir_cntrl0     34413347                       # Total read bandwidth from this memory (bytes/s)
system.mem_ctrls.bw_read::total              34413347                       # Total read bandwidth from this memory (bytes/s)
system.mem_ctrls.bw_total::ruby.dir_cntrl0     34413347                       # Total bandwidth to/from this memory (bytes/s)
system.mem_ctrls.bw_total::total             34413347                       # Total bandwidth to/from this memory (bytes/s)
system.mem_ctrls.readReqs                       63694                       # Number of read requests accepted
system.mem_ctrls.writeReqs                          0                       # Number of write requests accepted
system.mem_ctrls.readBursts                     63694                       # Number of DRAM read bursts, including those serviced by the write queue
system.mem_ctrls.writeBursts                        0                       # Number of DRAM write bursts, including those merged in the write queue
system.mem_ctrls.bytesReadDRAM                4076416                       # Total number of bytes read from DRAM
system.mem_ctrls.bytesReadWrQ                       0                       # Total number of bytes read from write queue
system.mem_ctrls.bytesWritten                       0                       # Total number of bytes written to DRAM
system.mem_ctrls.bytesReadSys                 4076416                       # Total read bytes from the system interface side
system.mem_ctrls.bytesWrittenSys                    0                       # Total written bytes from the system interface side
system.mem_ctrls.servicedByWrQ                      0                       # Number of DRAM read bursts serviced by the write queue
system.mem_ctrls.mergedWrBursts                     0                       # Number of DRAM write bursts merged with an existing one
system.mem_ctrls.neitherReadNorWriteReqs            0                       # Number of requests that are neither read nor write
system.mem_ctrls.perBankRdBursts::0              3939                       # Per bank write bursts
system.mem_ctrls.perBankRdBursts::1              3943                       # Per bank write bursts
system.mem_ctrls.perBankRdBursts::2              3860                       # Per bank write bursts
system.mem_ctrls.perBankRdBursts::3              3713                       # Per bank write bursts
system.mem_ctrls.perBankRdBursts::4              3832                       # Per bank write bursts
system.mem_ctrls.perBankRdBursts::5              3831                       # Per bank write bursts
system.mem_ctrls.perBankRdBursts::6              4128                       # Per bank write bursts
system.mem_ctrls.perBankRdBursts::7              4180                       # Per bank write bursts
system.mem_ctrls.perBankRdBursts::8              4014                       # Per bank write bursts
system.mem_ctrls.perBankRdBursts::9              4106                       # Per bank write bursts
system.mem_ctrls.perBankRdBursts::10             4178                       # Per bank write bursts
system.mem_ctrls.perBankRdBursts::11             4226                       # Per bank write bursts
system.mem_ctrls.perBankRdBursts::12             4056                       # Per bank write bursts
system.mem_ctrls.perBankRdBursts::13             3926                       # Per bank write bursts
system.mem_ctrls.perBankRdBursts::14             3869                       # Per bank write bursts
system.mem_ctrls.perBankRdBursts::15             3893                       # Per bank write bursts
system.mem_ctrls.perBankWrBursts::0                 0                       # Per bank write bursts
system.mem_ctrls.perBankWrBursts::1                 0                       # Per bank write bursts
system.mem_ctrls.perBankWrBursts::2                 0                       # Per bank write bursts
system.mem_ctrls.perBankWrBursts::3                 0                       # Per bank write bursts
system.mem_ctrls.perBankWrBursts::4                 0                       # Per bank write bursts
system.mem_ctrls.perBankWrBursts::5                 0                       # Per bank write bursts
system.mem_ctrls.perBankWrBursts::6                 0                       # Per bank write bursts
system.mem_ctrls.perBankWrBursts::7                 0                       # Per bank write bursts
system.mem_ctrls.perBankWrBursts::8                 0                       # Per bank write bursts
system.mem_ctrls.perBankWrBursts::9                 0                       # Per bank write bursts
system.mem_ctrls.perBankWrBursts::10                0                       # Per bank write bursts
system.mem_ctrls.perBankWrBursts::11                0                       # Per bank write bursts
system.mem_ctrls.perBankWrBursts::12                0                       # Per bank write bursts
system.mem_ctrls.perBankWrBursts::13                0                       # Per bank write bursts
system.mem_ctrls.perBankWrBursts::14                0                       # Per bank write bursts
system.mem_ctrls.perBankWrBursts::15                0                       # Per bank write bursts
system.mem_ctrls.numRdRetry                         0                       # Number of times read queue was full causing retry
system.mem_ctrls.numWrRetry                         0                       # Number of times write queue was full causing retry
system.mem_ctrls.totGap                  118454424000                       # Total gap between requests
system.mem_ctrls.readPktSize::0                     0                       # Read request sizes (log2)
system.mem_ctrls.readPktSize::1                     0                       # Read request sizes (log2)
system.mem_ctrls.readPktSize::2                     0                       # Read request sizes (log2)
system.mem_ctrls.readPktSize::3                     0                       # Read request sizes (log2)
system.mem_ctrls.readPktSize::4                     0                       # Read request sizes (log2)
system.mem_ctrls.readPktSize::5                     0                       # Read request sizes (log2)
system.mem_ctrls.readPktSize::6                 63694                       # Read request sizes (log2)
system.mem_ctrls.writePktSize::0                    0                       # Write request sizes (log2)
system.mem_ctrls.writePktSize::1                    0                       # Write request sizes (log2)
system.mem_ctrls.writePktSize::2                    0                       # Write request sizes (log2)
system.mem_ctrls.writePktSize::3                    0                       # Write request sizes (log2)
system.mem_ctrls.writePktSize::4                    0                       # Write request sizes (log2)
system.mem_ctrls.writePktSize::5                    0                       # Write request sizes (log2)
system.mem_ctrls.writePktSize::6                    0                       # Write request sizes (log2)
system.mem_ctrls.rdQLenPdf::0                   63693                       # What read queue length does an incoming req see
system.mem_ctrls.rdQLenPdf::1                       1                       # What read queue length does an incoming req see
system.mem_ctrls.rdQLenPdf::2                       0                       # What read queue length does an incoming req see
system.mem_ctrls.rdQLenPdf::3                       0                       # What read queue length does an incoming req see
system.mem_ctrls.rdQLenPdf::4                       0                       # What read queue length does an incoming req see
system.mem_ctrls.rdQLenPdf::5                       0                       # What read queue length does an incoming req see
system.mem_ctrls.rdQLenPdf::6                       0                       # What read queue length does an incoming req see
system.mem_ctrls.rdQLenPdf::7                       0                       # What read queue length does an incoming req see
system.mem_ctrls.rdQLenPdf::8                       0                       # What read queue length does an incoming req see
system.mem_ctrls.rdQLenPdf::9                       0                       # What read queue length does an incoming req see
system.mem_ctrls.rdQLenPdf::10                      0                       # What read queue length does an incoming req see
system.mem_ctrls.rdQLenPdf::11                      0                       # What read queue length does an incoming req see
system.mem_ctrls.rdQLenPdf::12                      0                       # What read queue length does an incoming req see
system.mem_ctrls.rdQLenPdf::13                      0                       # What read queue length does an incoming req see
system.mem_ctrls.rdQLenPdf::14                      0                       # What read queue length does an incoming req see
system.mem_ctrls.rdQLenPdf::15                      0                       # What read queue length does an incoming req see
system.mem_ctrls.rdQLenPdf::16                      0                       # What read queue length does an incoming req see
system.mem_ctrls.rdQLenPdf::17                      0                       # What read queue length does an incoming req see
system.mem_ctrls.rdQLenPdf::18                      0                       # What read queue length does an incoming req see
system.mem_ctrls.rdQLenPdf::19                      0                       # What read queue length does an incoming req see
system.mem_ctrls.rdQLenPdf::20                      0                       # What read queue length does an incoming req see
system.mem_ctrls.rdQLenPdf::21                      0                       # What read queue length does an incoming req see
system.mem_ctrls.rdQLenPdf::22                      0                       # What read queue length does an incoming req see
system.mem_ctrls.rdQLenPdf::23                      0                       # What read queue length does an incoming req see
system.mem_ctrls.rdQLenPdf::24                      0                       # What read queue length does an incoming req see
system.mem_ctrls.rdQLenPdf::25                      0                       # What read queue length does an incoming req see
system.mem_ctrls.rdQLenPdf::26                      0                       # What read queue length does an incoming req see
system.mem_ctrls.rdQLenPdf::27                      0                       # What read queue length does an incoming req see
system.mem_ctrls.rdQLenPdf::28                      0                       # What read queue length does an incoming req see
system.mem_ctrls.rdQLenPdf::29                      0                       # What read queue length does an incoming req see
system.mem_ctrls.rdQLenPdf::30                      0                       # What read queue length does an incoming req see
system.mem_ctrls.rdQLenPdf::31                      0                       # What read queue length does an incoming req see
system.mem_ctrls.wrQLenPdf::0                       0                       # What write queue length does an incoming req see
system.mem_ctrls.wrQLenPdf::1                       0                       # What write queue length does an incoming req see
system.mem_ctrls.wrQLenPdf::2                       0                       # What write queue length does an incoming req see
system.mem_ctrls.wrQLenPdf::3                       0                       # What write queue length does an incoming req see
system.mem_ctrls.wrQLenPdf::4                       0                       # What write queue length does an incoming req see
system.mem_ctrls.wrQLenPdf::5                       0                       # What write queue length does an incoming req see
system.mem_ctrls.wrQLenPdf::6                       0                       # What write queue length does an incoming req see
system.mem_ctrls.wrQLenPdf::7                       0                       # What write queue length does an incoming req see
system.mem_ctrls.wrQLenPdf::8                       0                       # What write queue length does an incoming req see
system.mem_ctrls.wrQLenPdf::9                       0                       # What write queue length does an incoming req see
system.mem_ctrls.wrQLenPdf::10                      0                       # What write queue length does an incoming req see
system.mem_ctrls.wrQLenPdf::11                      0                       # What write queue length does an incoming req see
system.mem_ctrls.wrQLenPdf::12                      0                       # What write queue length does an incoming req see
system.mem_ctrls.wrQLenPdf::13                      0                       # What write queue length does an incoming req see
system.mem_ctrls.wrQLenPdf::14                      0                       # What write queue length does an incoming req see
system.mem_ctrls.wrQLenPdf::15                      0                       # What write queue length does an incoming req see
system.mem_ctrls.wrQLenPdf::16                      0                       # What write queue length does an incoming req see
system.mem_ctrls.wrQLenPdf::17                      0                       # What write queue length does an incoming req see
system.mem_ctrls.wrQLenPdf::18                      0                       # What write queue length does an incoming req see
system.mem_ctrls.wrQLenPdf::19                      0                       # What write queue length does an incoming req see
system.mem_ctrls.wrQLenPdf::20                      0                       # What write queue length does an incoming req see
system.mem_ctrls.wrQLenPdf::21                      0                       # What write queue length does an incoming req see
system.mem_ctrls.wrQLenPdf::22                      0                       # What write queue length does an incoming req see
system.mem_ctrls.wrQLenPdf::23                      0                       # What write queue length does an incoming req see
system.mem_ctrls.wrQLenPdf::24                      0                       # What write queue length does an incoming req see
system.mem_ctrls.wrQLenPdf::25                      0                       # What write queue length does an incoming req see
system.mem_ctrls.wrQLenPdf::26                      0                       # What write queue length does an incoming req see
system.mem_ctrls.wrQLenPdf::27                      0                       # What write queue length does an incoming req see
system.mem_ctrls.wrQLenPdf::28                      0                       # What write queue length does an incoming req see
system.mem_ctrls.wrQLenPdf::29                      0                       # What write queue length does an incoming req see
system.mem_ctrls.wrQLenPdf::30                      0                       # What write queue length does an incoming req see
system.mem_ctrls.wrQLenPdf::31                      0                       # What write queue length does an incoming req see
system.mem_ctrls.wrQLenPdf::32                      0                       # What write queue length does an incoming req see
system.mem_ctrls.wrQLenPdf::33                      0                       # What write queue length does an incoming req see
system.mem_ctrls.wrQLenPdf::34                      0                       # What write queue length does an incoming req see
system.mem_ctrls.wrQLenPdf::35                      0                       # What write queue length does an incoming req see
system.mem_ctrls.wrQLenPdf::36                      0                       # What write queue length does an incoming req see
system.mem_ctrls.wrQLenPdf::37                      0                       # What write queue length does an incoming req see
system.mem_ctrls.wrQLenPdf::38                      0                       # What write queue length does an incoming req see
system.mem_ctrls.wrQLenPdf::39                      0                       # What write queue length does an incoming req see
system.mem_ctrls.wrQLenPdf::40                      0                       # What write queue length does an incoming req see
system.mem_ctrls.wrQLenPdf::41                      0                       # What write queue length does an incoming req see
system.mem_ctrls.wrQLenPdf::42                      0                       # What write queue length does an incoming req see
system.mem_ctrls.wrQLenPdf::43                      0                       # What write queue length does an incoming req see
system.mem_ctrls.wrQLenPdf::44                      0                       # What write queue length does an incoming req see
system.mem_ctrls.wrQLenPdf::45                      0                       # What write queue length does an incoming req see
system.mem_ctrls.wrQLenPdf::46                      0                       # What write queue length does an incoming req see
system.mem_ctrls.wrQLenPdf::47                      0                       # What write queue length does an incoming req see
system.mem_ctrls.wrQLenPdf::48                      0                       # What write queue length does an incoming req see
system.mem_ctrls.wrQLenPdf::49                      0                       # What write queue length does an incoming req see
system.mem_ctrls.wrQLenPdf::50                      0                       # What write queue length does an incoming req see
system.mem_ctrls.wrQLenPdf::51                      0                       # What write queue length does an incoming req see
system.mem_ctrls.wrQLenPdf::52                      0                       # What write queue length does an incoming req see
system.mem_ctrls.wrQLenPdf::53                      0                       # What write queue length does an incoming req see
system.mem_ctrls.wrQLenPdf::54                      0                       # What write queue length does an incoming req see
system.mem_ctrls.wrQLenPdf::55                      0                       # What write queue length does an incoming req see
system.mem_ctrls.wrQLenPdf::56                      0                       # What write queue length does an incoming req see
system.mem_ctrls.wrQLenPdf::57                      0                       # What write queue length does an incoming req see
system.mem_ctrls.wrQLenPdf::58                      0                       # What write queue length does an incoming req see
system.mem_ctrls.wrQLenPdf::59                      0                       # What write queue length does an incoming req see
system.mem_ctrls.wrQLenPdf::60                      0                       # What write queue length does an incoming req see
system.mem_ctrls.wrQLenPdf::61                      0                       # What write queue length does an incoming req see
system.mem_ctrls.wrQLenPdf::62                      0                       # What write queue length does an incoming req see
system.mem_ctrls.wrQLenPdf::63                      0                       # What write queue length does an incoming req see
system.mem_ctrls.bytesPerActivate::samples        15654                       # Bytes accessed per row activation
system.mem_ctrls.bytesPerActivate::mean    260.309186                       # Bytes accessed per row activation
system.mem_ctrls.bytesPerActivate::gmean   249.424106                       # Bytes accessed per row activation
system.mem_ctrls.bytesPerActivate::stdev    71.818425                       # Bytes accessed per row activation
system.mem_ctrls.bytesPerActivate::0-127          608      3.88%      3.88% # Bytes accessed per row activation
system.mem_ctrls.bytesPerActivate::128-255          734      4.69%      8.57% # Bytes accessed per row activation
system.mem_ctrls.bytesPerActivate::256-383        14028     89.61%     98.19% # Bytes accessed per row activation
system.mem_ctrls.bytesPerActivate::384-511          166      1.06%     99.25% # Bytes accessed per row activation
system.mem_ctrls.bytesPerActivate::512-639           31      0.20%     99.44% # Bytes accessed per row activation
system.mem_ctrls.bytesPerActivate::640-767           19      0.12%     99.57% # Bytes accessed per row activation
system.mem_ctrls.bytesPerActivate::768-895           17      0.11%     99.67% # Bytes accessed per row activation
system.mem_ctrls.bytesPerActivate::896-1023           21      0.13%     99.81% # Bytes accessed per row activation
system.mem_ctrls.bytesPerActivate::1024-1151           30      0.19%    100.00% # Bytes accessed per row activation
system.mem_ctrls.bytesPerActivate::total        15654                       # Bytes accessed per row activation
system.mem_ctrls.totQLat                    667299999                       # Total ticks spent queuing
system.mem_ctrls.totMemAccLat              1861562499                       # Total ticks spent from burst creation until serviced by the DRAM
system.mem_ctrls.totBusLat                  318470000                       # Total ticks spent in databus transfers
system.mem_ctrls.avgQLat                     10476.65                       # Average queueing delay per DRAM burst
system.mem_ctrls.avgBusLat                    5000.00                       # Average bus latency per DRAM burst
system.mem_ctrls.avgMemAccLat                29226.65                       # Average memory access latency per DRAM burst
system.mem_ctrls.avgRdBW                        34.41                       # Average DRAM read bandwidth in MiByte/s
system.mem_ctrls.avgWrBW                         0.00                       # Average achieved write bandwidth in MiByte/s
system.mem_ctrls.avgRdBWSys                     34.41                       # Average system read bandwidth in MiByte/s
system.mem_ctrls.avgWrBWSys                      0.00                       # Average system write bandwidth in MiByte/s
system.mem_ctrls.peakBW                      12800.00                       # Theoretical peak bandwidth in MiByte/s
system.mem_ctrls.busUtil                         0.27                       # Data bus utilization in percentage
system.mem_ctrls.busUtilRead                     0.27                       # Data bus utilization in percentage for reads
system.mem_ctrls.busUtilWrite                    0.00                       # Data bus utilization in percentage for writes
system.mem_ctrls.avgRdQLen                       1.00                       # Average read queue length when enqueuing
system.mem_ctrls.avgWrQLen                       0.00                       # Average write queue length when enqueuing
system.mem_ctrls.readRowHits                    48031                       # Number of row buffer hits during reads
system.mem_ctrls.writeRowHits                       0                       # Number of row buffer hits during writes
system.mem_ctrls.readRowHitRate                 75.41                       # Row buffer hit rate for reads
system.mem_ctrls.writeRowHitRate                  nan                       # Row buffer hit rate for writes
system.mem_ctrls.avgGap                    1859742.27                       # Average gap between requests
system.mem_ctrls.pageHitRate                    75.41                       # Row buffer hit rate, read and write combined
system.mem_ctrls_0.actEnergy                 59119200                       # Energy for activate commands per rank (pJ)
system.mem_ctrls_0.preEnergy                 32257500                       # Energy for precharge commands per rank (pJ)
system.mem_ctrls_0.readEnergy               245068200                       # Energy for read commands per rank (pJ)
system.mem_ctrls_0.writeEnergy                      0                       # Energy for write commands per rank (pJ)
system.mem_ctrls_0.refreshEnergy           7736723280                       # Energy for refresh commands per rank (pJ)
system.mem_ctrls_0.actBackEnergy          36673465410                       # Energy for active background per rank (pJ)
system.mem_ctrls_0.preBackEnergy          38901782250                       # Energy for precharge background per rank (pJ)
system.mem_ctrls_0.totalEnergy            83648415840                       # Total energy per rank (pJ)
system.mem_ctrls_0.averagePower            706.176983                       # Core power per rank (mW)
system.mem_ctrls_0.memoryStateTime::IDLE  64522488250                       # Time in different power states
system.mem_ctrls_0.memoryStateTime::REF    3955380000                       # Time in different power states
system.mem_ctrls_0.memoryStateTime::PRE_PDN            0                       # Time in different power states
system.mem_ctrls_0.memoryStateTime::ACT   49974821250                       # Time in different power states
system.mem_ctrls_0.memoryStateTime::ACT_PDN            0                       # Time in different power states
system.mem_ctrls_1.actEnergy                 59225040                       # Energy for activate commands per rank (pJ)
system.mem_ctrls_1.preEnergy                 32315250                       # Energy for precharge commands per rank (pJ)
system.mem_ctrls_1.readEnergy               251557800                       # Energy for read commands per rank (pJ)
system.mem_ctrls_1.writeEnergy                      0                       # Energy for write commands per rank (pJ)
system.mem_ctrls_1.refreshEnergy           7736723280                       # Energy for refresh commands per rank (pJ)
system.mem_ctrls_1.actBackEnergy          37446959115                       # Energy for active background per rank (pJ)
system.mem_ctrls_1.preBackEnergy          38223279000                       # Energy for precharge background per rank (pJ)
system.mem_ctrls_1.totalEnergy            83750059485                       # Total energy per rank (pJ)
system.mem_ctrls_1.averagePower            707.035079                       # Core power per rank (mW)
system.mem_ctrls_1.memoryStateTime::IDLE  63389285750                       # Time in different power states
system.mem_ctrls_1.memoryStateTime::REF    3955380000                       # Time in different power states
system.mem_ctrls_1.memoryStateTime::PRE_PDN            0                       # Time in different power states
system.mem_ctrls_1.memoryStateTime::ACT   51107829250                       # Time in different power states
system.mem_ctrls_1.memoryStateTime::ACT_PDN            0                       # Time in different power states
system.cpu_voltage_domain.voltage                   1                       # Voltage in Volts
system.cpu_clk_domain.clock                       500                       # Clock period in ticks
system.cpu0.apic_clk_domain.clock                8000                       # Clock period in ticks
system.cpu0.workload.num_syscalls                  61                       # Number of system calls
system.cpu0.numCycles                       236909009                       # number of cpu cycles simulated
system.cpu0.numWorkItemsStarted                     0                       # number of work items this cpu started
system.cpu0.numWorkItemsCompleted                   0                       # number of work items this cpu completed
system.cpu0.committedInsts                   65689513                       # Number of instructions committed
system.cpu0.committedOps                    183316828                       # Number of ops (including micro ops) committed
system.cpu0.num_int_alu_accesses            173320993                       # Number of integer alu accesses
system.cpu0.num_fp_alu_accesses               4677674                       # Number of float alu accesses
system.cpu0.num_func_calls                    6140880                       # number of times a function call or return occured
system.cpu0.num_conditional_control_insts     13988107                       # number of instructions that are conditional controls
system.cpu0.num_int_insts                   173320993                       # number of integer instructions
system.cpu0.num_fp_insts                      4677674                       # number of float instructions
system.cpu0.num_int_register_reads          365240036                       # number of times the integer registers were read
system.cpu0.num_int_register_writes         172163111                       # number of times the integer registers were written
system.cpu0.num_fp_register_reads             7498257                       # number of times the floating registers were read
system.cpu0.num_fp_register_writes            3715154                       # number of times the floating registers were written
system.cpu0.num_cc_register_reads           145034627                       # number of times the CC registers were read
system.cpu0.num_cc_register_writes           54698244                       # number of times the CC registers were written
system.cpu0.num_mem_refs                     28502688                       # number of memory refs
system.cpu0.num_load_insts                   17644241                       # Number of load instructions
system.cpu0.num_store_insts                  10858447                       # Number of store instructions
system.cpu0.num_idle_cycles                  0.002000                       # Number of idle cycles
system.cpu0.num_busy_cycles              236909008.998000                       # Number of busy cycles
system.cpu0.not_idle_fraction                1.000000                       # Percentage of non-idle cycles
system.cpu0.idle_fraction                    0.000000                       # Percentage of idle cycles
system.cpu0.Branches                         23132093                       # Number of branches fetched
system.cpu0.op_class::No_OpClass              3084847      1.68%      1.68% # Class of executed instruction
system.cpu0.op_class::IntAlu                132692473     72.38%     74.07% # Class of executed instruction
system.cpu0.op_class::IntMult                     316      0.00%     74.07% # Class of executed instruction
system.cpu0.op_class::IntDiv                 15322044      8.36%     82.43% # Class of executed instruction
system.cpu0.op_class::FloatAdd                3714460      2.03%     84.45% # Class of executed instruction
system.cpu0.op_class::FloatCmp                      0      0.00%     84.45% # Class of executed instruction
system.cpu0.op_class::FloatCvt                      0      0.00%     84.45% # Class of executed instruction
system.cpu0.op_class::FloatMult                     0      0.00%     84.45% # Class of executed instruction
system.cpu0.op_class::FloatDiv                      0      0.00%     84.45% # Class of executed instruction
system.cpu0.op_class::FloatSqrt                     0      0.00%     84.45% # Class of executed instruction
system.cpu0.op_class::SimdAdd                       0      0.00%     84.45% # Class of executed instruction
system.cpu0.op_class::SimdAddAcc                    0      0.00%     84.45% # Class of executed instruction
system.cpu0.op_class::SimdAlu                       0      0.00%     84.45% # Class of executed instruction
system.cpu0.op_class::SimdCmp                       0      0.00%     84.45% # Class of executed instruction
system.cpu0.op_class::SimdCvt                       0      0.00%     84.45% # Class of executed instruction
system.cpu0.op_class::SimdMisc                      0      0.00%     84.45% # Class of executed instruction
system.cpu0.op_class::SimdMult                      0      0.00%     84.45% # Class of executed instruction
system.cpu0.op_class::SimdMultAcc                   0      0.00%     84.45% # Class of executed instruction
system.cpu0.op_class::SimdShift                     0      0.00%     84.45% # Class of executed instruction
system.cpu0.op_class::SimdShiftAcc                  0      0.00%     84.45% # Class of executed instruction
system.cpu0.op_class::SimdSqrt                      0      0.00%     84.45% # Class of executed instruction
system.cpu0.op_class::SimdFloatAdd                  0      0.00%     84.45% # Class of executed instruction
system.cpu0.op_class::SimdFloatAlu                  0      0.00%     84.45% # Class of executed instruction
system.cpu0.op_class::SimdFloatCmp                  0      0.00%     84.45% # Class of executed instruction
system.cpu0.op_class::SimdFloatCvt                  0      0.00%     84.45% # Class of executed instruction
system.cpu0.op_class::SimdFloatDiv                  0      0.00%     84.45% # Class of executed instruction
system.cpu0.op_class::SimdFloatMisc                 0      0.00%     84.45% # Class of executed instruction
system.cpu0.op_class::SimdFloatMult                 0      0.00%     84.45% # Class of executed instruction
system.cpu0.op_class::SimdFloatMultAcc              0      0.00%     84.45% # Class of executed instruction
system.cpu0.op_class::SimdFloatSqrt                 0      0.00%     84.45% # Class of executed instruction
system.cpu0.op_class::MemRead                17644241      9.62%     94.08% # Class of executed instruction
system.cpu0.op_class::MemWrite               10858447      5.92%    100.00% # Class of executed instruction
system.cpu0.op_class::IprAccess                     0      0.00%    100.00% # Class of executed instruction
system.cpu0.op_class::InstPrefetch                  0      0.00%    100.00% # Class of executed instruction
system.cpu0.op_class::total                 183316828                       # Class of executed instruction
system.cpu1.apic_clk_domain.clock                8000                       # Clock period in ticks
system.cpu1.numCycles                       236694537                       # number of cpu cycles simulated
system.cpu1.numWorkItemsStarted                     0                       # number of work items this cpu started
system.cpu1.numWorkItemsCompleted                   0                       # number of work items this cpu completed
system.cpu1.committedInsts                    2877516                       # Number of instructions committed
system.cpu1.committedOps                      5753471                       # Number of ops (including micro ops) committed
system.cpu1.num_int_alu_accesses              4327355                       # Number of integer alu accesses
system.cpu1.num_fp_alu_accesses               2691675                       # Number of float alu accesses
system.cpu1.num_func_calls                      24751                       # number of times a function call or return occured
system.cpu1.num_conditional_control_insts       341144                       # number of instructions that are conditional controls
system.cpu1.num_int_insts                     4327355                       # number of integer instructions
system.cpu1.num_fp_insts                      2691675                       # number of float instructions
system.cpu1.num_int_register_reads            7670140                       # number of times the integer registers were read
system.cpu1.num_int_register_writes           2706596                       # number of times the integer registers were written
system.cpu1.num_fp_register_reads             4167185                       # number of times the floating registers were read
system.cpu1.num_fp_register_writes            2679320                       # number of times the floating registers were written
system.cpu1.num_cc_register_reads             2059260                       # number of times the CC registers were read
system.cpu1.num_cc_register_writes            2052982                       # number of times the CC registers were written
system.cpu1.num_mem_refs                      1330703                       # number of memory refs
system.cpu1.num_load_insts                    1305886                       # Number of load instructions
system.cpu1.num_store_insts                     24817                       # Number of store instructions
system.cpu1.num_idle_cycles              224880225.101846                       # Number of idle cycles
system.cpu1.num_busy_cycles              11814311.898154                       # Number of busy cycles
system.cpu1.not_idle_fraction                0.049914                       # Percentage of non-idle cycles
system.cpu1.idle_fraction                    0.950086                       # Percentage of idle cycles
system.cpu1.Branches                           379810                       # Number of branches fetched
system.cpu1.op_class::No_OpClass                    2      0.00%      0.00% # Class of executed instruction
system.cpu1.op_class::IntAlu                  2959576     51.44%     51.44% # Class of executed instruction
system.cpu1.op_class::IntMult                   37061      0.64%     52.08% # Class of executed instruction
system.cpu1.op_class::IntDiv                       14      0.00%     52.08% # Class of executed instruction
system.cpu1.op_class::FloatAdd                1426115     24.79%     76.87% # Class of executed instruction
system.cpu1.op_class::FloatCmp                      0      0.00%     76.87% # Class of executed instruction
system.cpu1.op_class::FloatCvt                      0      0.00%     76.87% # Class of executed instruction
system.cpu1.op_class::FloatMult                     0      0.00%     76.87% # Class of executed instruction
system.cpu1.op_class::FloatDiv                      0      0.00%     76.87% # Class of executed instruction
system.cpu1.op_class::FloatSqrt                     0      0.00%     76.87% # Class of executed instruction
system.cpu1.op_class::SimdAdd                       0      0.00%     76.87% # Class of executed instruction
system.cpu1.op_class::SimdAddAcc                    0      0.00%     76.87% # Class of executed instruction
system.cpu1.op_class::SimdAlu                       0      0.00%     76.87% # Class of executed instruction
system.cpu1.op_class::SimdCmp                       0      0.00%     76.87% # Class of executed instruction
system.cpu1.op_class::SimdCvt                       0      0.00%     76.87% # Class of executed instruction
system.cpu1.op_class::SimdMisc                      0      0.00%     76.87% # Class of executed instruction
system.cpu1.op_class::SimdMult                      0      0.00%     76.87% # Class of executed instruction
system.cpu1.op_class::SimdMultAcc                   0      0.00%     76.87% # Class of executed instruction
system.cpu1.op_class::SimdShift                     0      0.00%     76.87% # Class of executed instruction
system.cpu1.op_class::SimdShiftAcc                  0      0.00%     76.87% # Class of executed instruction
system.cpu1.op_class::SimdSqrt                      0      0.00%     76.87% # Class of executed instruction
system.cpu1.op_class::SimdFloatAdd                  0      0.00%     76.87% # Class of executed instruction
system.cpu1.op_class::SimdFloatAlu                  0      0.00%     76.87% # Class of executed instruction
system.cpu1.op_class::SimdFloatCmp                  0      0.00%     76.87% # Class of executed instruction
system.cpu1.op_class::SimdFloatCvt                  0      0.00%     76.87% # Class of executed instruction
system.cpu1.op_class::SimdFloatDiv                  0      0.00%     76.87% # Class of executed instruction
system.cpu1.op_class::SimdFloatMisc                 0      0.00%     76.87% # Class of executed instruction
system.cpu1.op_class::SimdFloatMult                 0      0.00%     76.87% # Class of executed instruction
system.cpu1.op_class::SimdFloatMultAcc              0      0.00%     76.87% # Class of executed instruction
system.cpu1.op_class::SimdFloatSqrt                 0      0.00%     76.87% # Class of executed instruction
system.cpu1.op_class::MemRead                 1305886     22.70%     99.57% # Class of executed instruction
system.cpu1.op_class::MemWrite                  24817      0.43%    100.00% # Class of executed instruction
system.cpu1.op_class::IprAccess                     0      0.00%    100.00% # Class of executed instruction
system.cpu1.op_class::InstPrefetch                  0      0.00%    100.00% # Class of executed instruction
system.cpu1.op_class::total                   5753471                       # Class of executed instruction
system.ruby.clk_domain.clock                      500                       # Clock period in ticks
system.ruby.delayHist::bucket_size                  2                       # delay histogram for all message
system.ruby.delayHist::max_bucket                  19                       # delay histogram for all message
system.ruby.delayHist::samples                 941159                       # delay histogram for all message
system.ruby.delayHist::mean                  0.559403                       # delay histogram for all message
system.ruby.delayHist::stdev                 2.039758                       # delay histogram for all message
system.ruby.delayHist                    |      875301     93.00%     93.00% |           5      0.00%     93.00% |         122      0.01%     93.02% |           0      0.00%     93.02% |       65728      6.98%    100.00% |           1      0.00%    100.00% |           0      0.00%    100.00% |           1      0.00%    100.00% |           0      0.00%    100.00% |           1      0.00%    100.00% # delay histogram for all message
system.ruby.delayHist::total                   941159                       # delay histogram for all message
system.ruby.outstanding_req_hist::bucket_size            1                      
system.ruby.outstanding_req_hist::max_bucket            9                      
system.ruby.outstanding_req_hist::samples    119113287                      
system.ruby.outstanding_req_hist::mean       1.000117                      
system.ruby.outstanding_req_hist::gmean      1.000081                      
system.ruby.outstanding_req_hist::stdev      0.010815                      
system.ruby.outstanding_req_hist         |           0      0.00%      0.00% |   119099354     99.99%     99.99% |       13933      0.01%    100.00% |           0      0.00%    100.00% |           0      0.00%    100.00% |           0      0.00%    100.00% |           0      0.00%    100.00% |           0      0.00%    100.00% |           0      0.00%    100.00% |           0      0.00%    100.00%
system.ruby.outstanding_req_hist::total     119113287                      
system.ruby.latency_hist::bucket_size             128                      
system.ruby.latency_hist::max_bucket             1279                      
system.ruby.latency_hist::samples           119113287                      
system.ruby.latency_hist::mean               1.088385                      
system.ruby.latency_hist::gmean              1.004806                      
system.ruby.latency_hist::stdev              3.769869                      
system.ruby.latency_hist                 |   119097623     99.99%     99.99% |       13604      0.01%    100.00% |          39      0.00%    100.00% |         115      0.00%    100.00% |        1602      0.00%    100.00% |         304      0.00%    100.00% |           0      0.00%    100.00% |           0      0.00%    100.00% |           0      0.00%    100.00% |           0      0.00%    100.00%
system.ruby.latency_hist::total             119113287                      
system.ruby.hit_latency_hist::bucket_size          128                      
system.ruby.hit_latency_hist::max_bucket         1279                      
system.ruby.hit_latency_hist::samples       119113287                      
system.ruby.hit_latency_hist::mean           1.088385                      
system.ruby.hit_latency_hist::gmean          1.004806                      
system.ruby.hit_latency_hist::stdev          3.769869                      
system.ruby.hit_latency_hist             |   119097623     99.99%     99.99% |       13604      0.01%    100.00% |          39      0.00%    100.00% |         115      0.00%    100.00% |        1602      0.00%    100.00% |         304      0.00%    100.00% |           0      0.00%    100.00% |           0      0.00%    100.00% |           0      0.00%    100.00% |           0      0.00%    100.00%
system.ruby.hit_latency_hist::total         119113287                      
system.ruby.l0_cntrl0.Dcache.demand_hits     28440077                       # Number of cache demand hits
system.ruby.l0_cntrl0.Dcache.demand_misses        62675                       # Number of cache demand misses
system.ruby.l0_cntrl0.Dcache.demand_accesses     28502752                       # Number of cache demand accesses
system.ruby.l0_cntrl0.Icache.demand_hits     85562875                       # Number of cache demand hits
system.ruby.l0_cntrl0.Icache.demand_misses         2150                       # Number of cache demand misses
system.ruby.l0_cntrl0.Icache.demand_accesses     85565025                       # Number of cache demand accesses
system.ruby.l0_cntrl0.Zcache.demand_hits            0                       # Number of cache demand hits
system.ruby.l0_cntrl0.Zcache.demand_misses            0                       # Number of cache demand misses
system.ruby.l0_cntrl0.Zcache.demand_accesses            0                       # Number of cache demand accesses
system.ruby.l0_cntrl1.Dcache.demand_hits      1257483                       # Number of cache demand hits
system.ruby.l0_cntrl1.Dcache.demand_misses        87089                       # Number of cache demand misses
system.ruby.l0_cntrl1.Dcache.demand_accesses      1344572                       # Number of cache demand accesses
system.ruby.l0_cntrl1.Icache.demand_hits      3700486                       # Number of cache demand hits
system.ruby.l0_cntrl1.Icache.demand_misses          452                       # Number of cache demand misses
system.ruby.l0_cntrl1.Icache.demand_accesses      3700938                       # Number of cache demand accesses
system.ruby.l0_cntrl1.Zcache.demand_hits            0                       # Number of cache demand hits
system.ruby.l0_cntrl1.Zcache.demand_misses            0                       # Number of cache demand misses
system.ruby.l0_cntrl1.Zcache.demand_accesses            0                       # Number of cache demand accesses
system.ruby.l1_cntrl0.cache.demand_hits           232                       # Number of cache demand hits
system.ruby.l1_cntrl0.cache.demand_misses        64593                       # Number of cache demand misses
system.ruby.l1_cntrl0.cache.demand_accesses        64825                       # Number of cache demand accesses
system.ruby.l1_cntrl1.cache.demand_hits          7092                       # Number of cache demand hits
system.ruby.l1_cntrl1.cache.demand_misses        80449                       # Number of cache demand misses
system.ruby.l1_cntrl1.cache.demand_accesses        87541                       # Number of cache demand accesses
system.ruby.l2_cntrl0.L2cache.demand_hits        80675                       # Number of cache demand hits
system.ruby.l2_cntrl0.L2cache.demand_misses        64367                       # Number of cache demand misses
system.ruby.l2_cntrl0.L2cache.demand_accesses       145042                       # Number of cache demand accesses
system.ruby.memctrl_clk_domain.clock             1500                       # Clock period in ticks
system.ruby.network.routers0.percent_links_utilized            0                      
system.ruby.network.routers1.percent_links_utilized            0                      
system.ruby.network.routers2.percent_links_utilized     0.142474                      
system.ruby.network.routers2.msg_count.Control::0        64593                      
system.ruby.network.routers2.msg_count.Request_Control::2          667                      
system.ruby.network.routers2.msg_count.Response_Data::1        65913                      
system.ruby.network.routers2.msg_count.Response_Control::1        63125                      
system.ruby.network.routers2.msg_count.Response_Control::2        64590                      
system.ruby.network.routers2.msg_count.Writeback_Data::0        62605                      
system.ruby.network.routers2.msg_count.Writeback_Control::0          498                      
system.ruby.network.routers2.msg_bytes.Control::0       516744                      
system.ruby.network.routers2.msg_bytes.Request_Control::2         5336                      
system.ruby.network.routers2.msg_bytes.Response_Data::1      4745736                      
system.ruby.network.routers2.msg_bytes.Response_Control::1       505000                      
system.ruby.network.routers2.msg_bytes.Response_Control::2       516720                      
system.ruby.network.routers2.msg_bytes.Writeback_Data::0      4507560                      
system.ruby.network.routers2.msg_bytes.Writeback_Control::0         3984                      
system.ruby.network.routers3.percent_links_utilized     0.112220                      
system.ruby.network.routers3.msg_count.Control::0        80449                      
system.ruby.network.routers3.msg_count.Request_Control::2           17                      
system.ruby.network.routers3.msg_count.Response_Data::1        80461                      
system.ruby.network.routers3.msg_count.Response_Control::1        79400                      
system.ruby.network.routers3.msg_count.Response_Control::2        80415                      
system.ruby.network.routers3.msg_count.Writeback_Data::0         2453                      
system.ruby.network.routers3.msg_count.Writeback_Control::0        76934                      
system.ruby.network.routers3.msg_bytes.Control::0       643592                      
system.ruby.network.routers3.msg_bytes.Request_Control::2          136                      
system.ruby.network.routers3.msg_bytes.Response_Data::1      5793192                      
system.ruby.network.routers3.msg_bytes.Response_Control::1       635200                      
system.ruby.network.routers3.msg_bytes.Response_Control::2       643320                      
system.ruby.network.routers3.msg_bytes.Writeback_Data::0       176616                      
system.ruby.network.routers3.msg_bytes.Writeback_Control::0       615472                      
system.ruby.network.routers4.percent_links_utilized     0.320628                      
system.ruby.network.routers4.msg_count.Control::0       208736                      
system.ruby.network.routers4.msg_count.Request_Control::2          684                      
system.ruby.network.routers4.msg_count.Response_Data::1       208723                      
system.ruby.network.routers4.msg_count.Response_Control::1       142501                      
system.ruby.network.routers4.msg_count.Response_Control::2       145005                      
system.ruby.network.routers4.msg_count.Writeback_Data::0        65058                      
system.ruby.network.routers4.msg_count.Writeback_Control::0        77432                      
system.ruby.network.routers4.msg_bytes.Control::0      1669888                      
system.ruby.network.routers4.msg_bytes.Request_Control::2         5472                      
system.ruby.network.routers4.msg_bytes.Response_Data::1     15028056                      
system.ruby.network.routers4.msg_bytes.Response_Control::1      1140008                      
system.ruby.network.routers4.msg_bytes.Response_Control::2      1160040                      
system.ruby.network.routers4.msg_bytes.Writeback_Data::0      4684176                      
system.ruby.network.routers4.msg_bytes.Writeback_Control::0       619456                      
system.ruby.network.routers5.percent_links_utilized     0.067214                      
system.ruby.network.routers5.msg_count.Control::0        63694                      
system.ruby.network.routers5.msg_count.Response_Data::1        63694                      
system.ruby.network.routers5.msg_bytes.Control::0       509552                      
system.ruby.network.routers5.msg_bytes.Response_Data::1      4585968                      
system.ruby.network.routers6.percent_links_utilized     0.107089                      
system.ruby.network.routers6.msg_count.Control::0       208736                      
system.ruby.network.routers6.msg_count.Request_Control::2          684                      
system.ruby.network.routers6.msg_count.Response_Data::1       209396                      
system.ruby.network.routers6.msg_count.Response_Control::1       142513                      
system.ruby.network.routers6.msg_count.Response_Control::2       145005                      
system.ruby.network.routers6.msg_count.Writeback_Data::0        65058                      
system.ruby.network.routers6.msg_count.Writeback_Control::0        77432                      
system.ruby.network.routers6.msg_bytes.Control::0      1669888                      
system.ruby.network.routers6.msg_bytes.Request_Control::2         5472                      
system.ruby.network.routers6.msg_bytes.Response_Data::1     15076512                      
system.ruby.network.routers6.msg_bytes.Response_Control::1      1140104                      
system.ruby.network.routers6.msg_bytes.Response_Control::2      1160040                      
system.ruby.network.routers6.msg_bytes.Writeback_Data::0      4684176                      
system.ruby.network.routers6.msg_bytes.Writeback_Control::0       619456                      
system.ruby.network.msg_count.Control          626208                      
system.ruby.network.msg_count.Request_Control         2052                      
system.ruby.network.msg_count.Response_Data       628187                      
system.ruby.network.msg_count.Response_Control       862554                      
system.ruby.network.msg_count.Writeback_Data       195174                      
system.ruby.network.msg_count.Writeback_Control       232296                      
system.ruby.network.msg_byte.Control          5009664                      
system.ruby.network.msg_byte.Request_Control        16416                      
system.ruby.network.msg_byte.Response_Data     45229464                      
system.ruby.network.msg_byte.Response_Control      6900432                      
system.ruby.network.msg_byte.Writeback_Data     14052528                      
system.ruby.network.msg_byte.Writeback_Control      1858368                      
system.ruby.network.routers0.throttle0.link_utilization            0                      
system.ruby.network.routers0.throttle1.link_utilization            0                      
system.ruby.network.routers1.throttle0.link_utilization            0                      
system.ruby.network.routers1.throttle1.link_utilization            0                      
system.ruby.network.routers2.throttle0.link_utilization     0.136136                      
system.ruby.network.routers2.throttle0.msg_count.Request_Control::2          667                      
system.ruby.network.routers2.throttle0.msg_count.Response_Data::1        64583                      
system.ruby.network.routers2.throttle0.msg_count.Response_Control::1        63123                      
system.ruby.network.routers2.throttle0.msg_bytes.Request_Control::2         5336                      
system.ruby.network.routers2.throttle0.msg_bytes.Response_Data::1      4649976                      
system.ruby.network.routers2.throttle0.msg_bytes.Response_Control::1       504984                      
system.ruby.network.routers2.throttle1.link_utilization     0.148812                      
system.ruby.network.routers2.throttle1.msg_count.Control::0        64593                      
system.ruby.network.routers2.throttle1.msg_count.Response_Data::1         1330                      
system.ruby.network.routers2.throttle1.msg_count.Response_Control::1            2                      
system.ruby.network.routers2.throttle1.msg_count.Response_Control::2        64590                      
system.ruby.network.routers2.throttle1.msg_count.Writeback_Data::0        62605                      
system.ruby.network.routers2.throttle1.msg_count.Writeback_Control::0          498                      
system.ruby.network.routers2.throttle1.msg_bytes.Control::0       516744                      
system.ruby.network.routers2.throttle1.msg_bytes.Response_Data::1        95760                      
system.ruby.network.routers2.throttle1.msg_bytes.Response_Control::1           16                      
system.ruby.network.routers2.throttle1.msg_bytes.Response_Control::2       516720                      
system.ruby.network.routers2.throttle1.msg_bytes.Writeback_Data::0      4507560                      
system.ruby.network.routers2.throttle1.msg_bytes.Writeback_Control::0         3984                      
system.ruby.network.routers3.throttle0.link_utilization     0.169567                      
system.ruby.network.routers3.throttle0.msg_count.Request_Control::2           17                      
system.ruby.network.routers3.throttle0.msg_count.Response_Data::1        80448                      
system.ruby.network.routers3.throttle0.msg_count.Response_Control::1        79390                      
system.ruby.network.routers3.throttle0.msg_bytes.Request_Control::2          136                      
system.ruby.network.routers3.throttle0.msg_bytes.Response_Data::1      5792256                      
system.ruby.network.routers3.throttle0.msg_bytes.Response_Control::1       635120                      
system.ruby.network.routers3.throttle1.link_utilization     0.054874                      
system.ruby.network.routers3.throttle1.msg_count.Control::0        80449                      
system.ruby.network.routers3.throttle1.msg_count.Response_Data::1           13                      
system.ruby.network.routers3.throttle1.msg_count.Response_Control::1           10                      
system.ruby.network.routers3.throttle1.msg_count.Response_Control::2        80415                      
system.ruby.network.routers3.throttle1.msg_count.Writeback_Data::0         2453                      
system.ruby.network.routers3.throttle1.msg_count.Writeback_Control::0        76934                      
system.ruby.network.routers3.throttle1.msg_bytes.Control::0       643592                      
system.ruby.network.routers3.throttle1.msg_bytes.Response_Data::1          936                      
system.ruby.network.routers3.throttle1.msg_bytes.Response_Control::1           80                      
system.ruby.network.routers3.throttle1.msg_bytes.Response_Control::2       643320                      
system.ruby.network.routers3.throttle1.msg_bytes.Writeback_Data::0       176616                      
system.ruby.network.routers3.throttle1.msg_bytes.Writeback_Control::0       615472                      
system.ruby.network.routers4.throttle0.link_utilization     0.323391                      
system.ruby.network.routers4.throttle0.msg_count.Control::0       145042                      
system.ruby.network.routers4.throttle0.msg_count.Response_Data::1        64365                      
system.ruby.network.routers4.throttle0.msg_count.Response_Control::2       145005                      
system.ruby.network.routers4.throttle0.msg_count.Writeback_Data::0        65058                      
system.ruby.network.routers4.throttle0.msg_count.Writeback_Control::0        77432                      
system.ruby.network.routers4.throttle0.msg_bytes.Control::0      1160336                      
system.ruby.network.routers4.throttle0.msg_bytes.Response_Data::1      4634280                      
system.ruby.network.routers4.throttle0.msg_bytes.Response_Control::2      1160040                      
system.ruby.network.routers4.throttle0.msg_bytes.Writeback_Data::0      4684176                      
system.ruby.network.routers4.throttle0.msg_bytes.Writeback_Control::0       619456                      
system.ruby.network.routers4.throttle1.link_utilization     0.317865                      
system.ruby.network.routers4.throttle1.msg_count.Control::0        63694                      
system.ruby.network.routers4.throttle1.msg_count.Request_Control::2          684                      
system.ruby.network.routers4.throttle1.msg_count.Response_Data::1       144358                      
system.ruby.network.routers4.throttle1.msg_count.Response_Control::1       142501                      
system.ruby.network.routers4.throttle1.msg_bytes.Control::0       509552                      
system.ruby.network.routers4.throttle1.msg_bytes.Request_Control::2         5472                      
system.ruby.network.routers4.throttle1.msg_bytes.Response_Data::1     10393776                      
system.ruby.network.routers4.throttle1.msg_bytes.Response_Control::1      1140008                      
system.ruby.network.routers5.throttle0.link_utilization     0.013443                      
system.ruby.network.routers5.throttle0.msg_count.Control::0        63694                      
system.ruby.network.routers5.throttle0.msg_bytes.Control::0       509552                      
system.ruby.network.routers5.throttle1.link_utilization     0.120984                      
system.ruby.network.routers5.throttle1.msg_count.Response_Data::1        63694                      
system.ruby.network.routers5.throttle1.msg_bytes.Response_Data::1      4585968                      
system.ruby.network.routers6.throttle0.link_utilization            0                      
system.ruby.network.routers6.throttle1.link_utilization            0                      
system.ruby.network.routers6.throttle2.link_utilization     0.136136                      
system.ruby.network.routers6.throttle2.msg_count.Request_Control::2          667                      
system.ruby.network.routers6.throttle2.msg_count.Response_Data::1        64583                      
system.ruby.network.routers6.throttle2.msg_count.Response_Control::1        63123                      
system.ruby.network.routers6.throttle2.msg_bytes.Request_Control::2         5336                      
system.ruby.network.routers6.throttle2.msg_bytes.Response_Data::1      4649976                      
system.ruby.network.routers6.throttle2.msg_bytes.Response_Control::1       504984                      
system.ruby.network.routers6.throttle3.link_utilization     0.169567                      
system.ruby.network.routers6.throttle3.msg_count.Request_Control::2           17                      
system.ruby.network.routers6.throttle3.msg_count.Response_Data::1        80448                      
system.ruby.network.routers6.throttle3.msg_count.Response_Control::1        79390                      
system.ruby.network.routers6.throttle3.msg_bytes.Request_Control::2          136                      
system.ruby.network.routers6.throttle3.msg_bytes.Response_Data::1      5792256                      
system.ruby.network.routers6.throttle3.msg_bytes.Response_Control::1       635120                      
system.ruby.network.routers6.throttle4.link_utilization     0.323391                      
system.ruby.network.routers6.throttle4.msg_count.Control::0       145042                      
system.ruby.network.routers6.throttle4.msg_count.Response_Data::1        64365                      
system.ruby.network.routers6.throttle4.msg_count.Response_Control::2       145005                      
system.ruby.network.routers6.throttle4.msg_count.Writeback_Data::0        65058                      
system.ruby.network.routers6.throttle4.msg_count.Writeback_Control::0        77432                      
system.ruby.network.routers6.throttle4.msg_bytes.Control::0      1160336                      
system.ruby.network.routers6.throttle4.msg_bytes.Response_Data::1      4634280                      
system.ruby.network.routers6.throttle4.msg_bytes.Response_Control::2      1160040                      
system.ruby.network.routers6.throttle4.msg_bytes.Writeback_Data::0      4684176                      
system.ruby.network.routers6.throttle4.msg_bytes.Writeback_Control::0       619456                      
system.ruby.network.routers6.throttle5.link_utilization     0.013443                      
system.ruby.network.routers6.throttle5.msg_count.Control::0        63694                      
system.ruby.network.routers6.throttle5.msg_bytes.Control::0       509552                      
system.ruby.delayVCHist.vnet_0::bucket_size            2                       # delay histogram for vnet_0
system.ruby.delayVCHist.vnet_0::max_bucket           19                       # delay histogram for vnet_0
system.ruby.delayVCHist.vnet_0::samples        432537                       # delay histogram for vnet_0
system.ruby.delayVCHist.vnet_0::mean         1.203351                       # delay histogram for vnet_0
system.ruby.delayVCHist.vnet_0::stdev        2.859912                       # delay histogram for vnet_0
system.ruby.delayVCHist.vnet_0           |      367473     84.96%     84.96% |           5      0.00%     84.96% |           0      0.00%     84.96% |           0      0.00%     84.96% |       65057     15.04%    100.00% |           1      0.00%    100.00% |           0      0.00%    100.00% |           0      0.00%    100.00% |           0      0.00%    100.00% |           1      0.00%    100.00% # delay histogram for vnet_0
system.ruby.delayVCHist.vnet_0::total          432537                       # delay histogram for vnet_0
system.ruby.delayVCHist.vnet_1::bucket_size            1                       # delay histogram for vnet_1
system.ruby.delayVCHist.vnet_1::max_bucket            9                       # delay histogram for vnet_1
system.ruby.delayVCHist.vnet_1::samples        504275                       # delay histogram for vnet_1
system.ruby.delayVCHist.vnet_1::mean         0.010645                       # delay histogram for vnet_1
system.ruby.delayVCHist.vnet_1::stdev        0.291628                       # delay histogram for vnet_1
system.ruby.delayVCHist.vnet_1           |      503604     99.87%     99.87% |           0      0.00%     99.87% |           0      0.00%     99.87% |           0      0.00%     99.87% |           0      0.00%     99.87% |           0      0.00%     99.87% |           0      0.00%     99.87% |           0      0.00%     99.87% |         671      0.13%    100.00% |           0      0.00%    100.00% # delay histogram for vnet_1
system.ruby.delayVCHist.vnet_1::total          504275                       # delay histogram for vnet_1
system.ruby.delayVCHist.vnet_2::bucket_size            2                       # delay histogram for vnet_2
system.ruby.delayVCHist.vnet_2::max_bucket           19                       # delay histogram for vnet_2
system.ruby.delayVCHist.vnet_2::samples          4347                       # delay histogram for vnet_2
system.ruby.delayVCHist.vnet_2::mean         0.143777                       # delay histogram for vnet_2
system.ruby.delayVCHist.vnet_2::stdev        0.856090                       # delay histogram for vnet_2
system.ruby.delayVCHist.vnet_2           |        4224     97.17%     97.17% |           0      0.00%     97.17% |         122      2.81%     99.98% |           0      0.00%     99.98% |           0      0.00%     99.98% |           0      0.00%     99.98% |           0      0.00%     99.98% |           1      0.02%    100.00% |           0      0.00%    100.00% |           0      0.00%    100.00% # delay histogram for vnet_2
system.ruby.delayVCHist.vnet_2::total            4347                       # delay histogram for vnet_2
system.ruby.LD.latency_hist::bucket_size          128                      
system.ruby.LD.latency_hist::max_bucket          1279                      
system.ruby.LD.latency_hist::samples         16918383                      
system.ruby.LD.latency_hist::mean            1.099293                      
system.ruby.LD.latency_hist::gmean           1.015276                      
system.ruby.LD.latency_hist::stdev           1.493598                      
system.ruby.LD.latency_hist              |    16918271    100.00%    100.00% |         111      0.00%    100.00% |           0      0.00%    100.00% |           0      0.00%    100.00% |           0      0.00%    100.00% |           1      0.00%    100.00% |           0      0.00%    100.00% |           0      0.00%    100.00% |           0      0.00%    100.00% |           0      0.00%    100.00%
system.ruby.LD.latency_hist::total           16918383                      
system.ruby.LD.hit_latency_hist::bucket_size          128                      
system.ruby.LD.hit_latency_hist::max_bucket         1279                      
system.ruby.LD.hit_latency_hist::samples     16918383                      
system.ruby.LD.hit_latency_hist::mean        1.099293                      
system.ruby.LD.hit_latency_hist::gmean       1.015276                      
system.ruby.LD.hit_latency_hist::stdev       1.493598                      
system.ruby.LD.hit_latency_hist          |    16918271    100.00%    100.00% |         111      0.00%    100.00% |           0      0.00%    100.00% |           0      0.00%    100.00% |           0      0.00%    100.00% |           1      0.00%    100.00% |           0      0.00%    100.00% |           0      0.00%    100.00% |           0      0.00%    100.00% |           0      0.00%    100.00%
system.ruby.LD.hit_latency_hist::total       16918383                      
system.ruby.ST.latency_hist::bucket_size          128                      
system.ruby.ST.latency_hist::max_bucket          1279                      
system.ruby.ST.latency_hist::samples          8837972                      
system.ruby.ST.latency_hist::mean            1.979781                      
system.ruby.ST.latency_hist::gmean           1.035027                      
system.ruby.ST.latency_hist::stdev          13.544400                      
system.ruby.ST.latency_hist              |     8822697     99.83%     99.83% |       13235      0.15%     99.98% |          39      0.00%     99.98% |         114      0.00%     99.98% |        1593      0.02%    100.00% |         294      0.00%    100.00% |           0      0.00%    100.00% |           0      0.00%    100.00% |           0      0.00%    100.00% |           0      0.00%    100.00%
system.ruby.ST.latency_hist::total            8837972                      
system.ruby.ST.hit_latency_hist::bucket_size          128                      
system.ruby.ST.hit_latency_hist::max_bucket         1279                      
system.ruby.ST.hit_latency_hist::samples      8837972                      
system.ruby.ST.hit_latency_hist::mean        1.979781                      
system.ruby.ST.hit_latency_hist::gmean       1.035027                      
system.ruby.ST.hit_latency_hist::stdev      13.544400                      
system.ruby.ST.hit_latency_hist          |     8822697     99.83%     99.83% |       13235      0.15%     99.98% |          39      0.00%     99.98% |         114      0.00%     99.98% |        1593      0.02%    100.00% |         294      0.00%    100.00% |           0      0.00%    100.00% |           0      0.00%    100.00% |           0      0.00%    100.00% |           0      0.00%    100.00%
system.ruby.ST.hit_latency_hist::total        8837972                      
system.ruby.IFETCH.latency_hist::bucket_size          128                      
system.ruby.IFETCH.latency_hist::max_bucket         1279                      
system.ruby.IFETCH.latency_hist::samples     89265963                      
system.ruby.IFETCH.latency_hist::mean        1.002090                      
system.ruby.IFETCH.latency_hist::gmean       1.000113                      
system.ruby.IFETCH.latency_hist::stdev       0.539071                      
system.ruby.IFETCH.latency_hist          |    89265688    100.00%    100.00% |         256      0.00%    100.00% |           0      0.00%    100.00% |           1      0.00%    100.00% |           9      0.00%    100.00% |           9      0.00%    100.00% |           0      0.00%    100.00% |           0      0.00%    100.00% |           0      0.00%    100.00% |           0      0.00%    100.00%
system.ruby.IFETCH.latency_hist::total       89265963                      
system.ruby.IFETCH.hit_latency_hist::bucket_size          128                      
system.ruby.IFETCH.hit_latency_hist::max_bucket         1279                      
system.ruby.IFETCH.hit_latency_hist::samples     89265963                      
system.ruby.IFETCH.hit_latency_hist::mean     1.002090                      
system.ruby.IFETCH.hit_latency_hist::gmean     1.000113                      
system.ruby.IFETCH.hit_latency_hist::stdev     0.539071                      
system.ruby.IFETCH.hit_latency_hist      |    89265688    100.00%    100.00% |         256      0.00%    100.00% |           0      0.00%    100.00% |           1      0.00%    100.00% |           9      0.00%    100.00% |           9      0.00%    100.00% |           0      0.00%    100.00% |           0      0.00%    100.00% |           0      0.00%    100.00% |           0      0.00%    100.00%
system.ruby.IFETCH.hit_latency_hist::total     89265963                      
system.ruby.RMW_Read.latency_hist::bucket_size            4                      
system.ruby.RMW_Read.latency_hist::max_bucket           39                      
system.ruby.RMW_Read.latency_hist::samples          375                      
system.ruby.RMW_Read.latency_hist::mean      1.496000                      
system.ruby.RMW_Read.latency_hist::gmean     1.067624                      
system.ruby.RMW_Read.latency_hist::stdev     3.602489                      
system.ruby.RMW_Read.latency_hist        |         367     97.87%     97.87% |           1      0.27%     98.13% |           0      0.00%     98.13% |           0      0.00%     98.13% |           0      0.00%     98.13% |           3      0.80%     98.93% |           0      0.00%     98.93% |           2      0.53%     99.47% |           2      0.53%    100.00% |           0      0.00%    100.00%
system.ruby.RMW_Read.latency_hist::total          375                      
system.ruby.RMW_Read.hit_latency_hist::bucket_size            4                      
system.ruby.RMW_Read.hit_latency_hist::max_bucket           39                      
system.ruby.RMW_Read.hit_latency_hist::samples          375                      
system.ruby.RMW_Read.hit_latency_hist::mean     1.496000                      
system.ruby.RMW_Read.hit_latency_hist::gmean     1.067624                      
system.ruby.RMW_Read.hit_latency_hist::stdev     3.602489                      
system.ruby.RMW_Read.hit_latency_hist    |         367     97.87%     97.87% |           1      0.27%     98.13% |           0      0.00%     98.13% |           0      0.00%     98.13% |           0      0.00%     98.13% |           3      0.80%     98.93% |           0      0.00%     98.93% |           2      0.53%     99.47% |           2      0.53%    100.00% |           0      0.00%    100.00%
system.ruby.RMW_Read.hit_latency_hist::total          375                      
system.ruby.Locked_RMW_Read.latency_hist::bucket_size           32                      
system.ruby.Locked_RMW_Read.latency_hist::max_bucket          319                      
system.ruby.Locked_RMW_Read.latency_hist::samples      2045297                      
system.ruby.Locked_RMW_Read.latency_hist::mean     1.000942                      
system.ruby.Locked_RMW_Read.latency_hist::gmean     1.000113                      
system.ruby.Locked_RMW_Read.latency_hist::stdev     0.205941                      
system.ruby.Locked_RMW_Read.latency_hist |     2045295    100.00%    100.00% |           0      0.00%    100.00% |           0      0.00%    100.00% |           0      0.00%    100.00% |           1      0.00%    100.00% |           1      0.00%    100.00% |           0      0.00%    100.00% |           0      0.00%    100.00% |           0      0.00%    100.00% |           0      0.00%    100.00%
system.ruby.Locked_RMW_Read.latency_hist::total      2045297                      
system.ruby.Locked_RMW_Read.hit_latency_hist::bucket_size           32                      
system.ruby.Locked_RMW_Read.hit_latency_hist::max_bucket          319                      
system.ruby.Locked_RMW_Read.hit_latency_hist::samples      2045297                      
system.ruby.Locked_RMW_Read.hit_latency_hist::mean     1.000942                      
system.ruby.Locked_RMW_Read.hit_latency_hist::gmean     1.000113                      
system.ruby.Locked_RMW_Read.hit_latency_hist::stdev     0.205941                      
system.ruby.Locked_RMW_Read.hit_latency_hist |     2045295    100.00%    100.00% |           0      0.00%    100.00% |           0      0.00%    100.00% |           0      0.00%    100.00% |           1      0.00%    100.00% |           1      0.00%    100.00% |           0      0.00%    100.00% |           0      0.00%    100.00% |           0      0.00%    100.00% |           0      0.00%    100.00%
system.ruby.Locked_RMW_Read.hit_latency_hist::total      2045297                      
system.ruby.Locked_RMW_Write.latency_hist::bucket_size            1                      
system.ruby.Locked_RMW_Write.latency_hist::max_bucket            9                      
system.ruby.Locked_RMW_Write.latency_hist::samples      2045297                      
system.ruby.Locked_RMW_Write.latency_hist::mean            1                      
system.ruby.Locked_RMW_Write.latency_hist::gmean            1                      
[...]
system.ruby.L0Cache_Controller.Ifetch::total     89265963                      
system.ruby.L0Cache_Controller.Store     |    12904117     99.81%     99.81% |       24824      0.19%    100.00%
system.ruby.L0Cache_Controller.Store::total     12928941                      
system.ruby.L0Cache_Controller.Inv       |        1927     52.61%     52.61% |        1736     47.39%    100.00%
system.ruby.L0Cache_Controller.Inv::total         3663                      
system.ruby.L0Cache_Controller.L0_Replacement |       62319     42.10%     42.10% |       85697     57.90%    100.00%
system.ruby.L0Cache_Controller.L0_Replacement::total       148016                      
system.ruby.L0Cache_Controller.Data      |          19      2.64%      2.64% |         701     97.36%    100.00%
system.ruby.L0Cache_Controller.Data::total          720                      
system.ruby.L0Cache_Controller.Data_Exclusive |       64806     42.74%     42.74% |       86840     57.26%    100.00%
system.ruby.L0Cache_Controller.Data_Exclusive::total       151646                      
system.ruby.L0Cache_Controller.NP.Load   |         883      1.01%      1.01% |       86297     98.99%    100.00%
system.ruby.L0Cache_Controller.NP.Load::total        87180                      
system.ruby.L0Cache_Controller.NP.Ifetch |        2150     82.63%     82.63% |         452     17.37%    100.00%
system.ruby.L0Cache_Controller.NP.Ifetch::total         2602                      
system.ruby.L0Cache_Controller.NP.Store  |       61782     98.74%     98.74% |         791      1.26%    100.00%
system.ruby.L0Cache_Controller.NP.Store::total        62573                      
system.ruby.L0Cache_Controller.NP.Inv    |           1      3.33%      3.33% |          29     96.67%    100.00%
system.ruby.L0Cache_Controller.NP.Inv::total           30                      
system.ruby.L0Cache_Controller.S.Load    |      657053     98.82%     98.82% |        7819      1.18%    100.00%
system.ruby.L0Cache_Controller.S.Load::total       664872                      
system.ruby.L0Cache_Controller.S.Ifetch  |          25     13.09%     13.09% |         166     86.91%    100.00%
system.ruby.L0Cache_Controller.S.Ifetch::total          191                      
system.ruby.L0Cache_Controller.S.Store   |          10     90.91%     90.91% |           1      9.09%    100.00%
system.ruby.L0Cache_Controller.S.Store::total           11                      
system.ruby.L0Cache_Controller.S.Inv     |           3     17.65%     17.65% |          14     82.35%    100.00%
system.ruby.L0Cache_Controller.S.Inv::total           17                      
system.ruby.L0Cache_Controller.S.L0_Replacement |           5      0.86%      0.86% |         578     99.14%    100.00%
system.ruby.L0Cache_Controller.S.L0_Replacement::total          583                      
system.ruby.L0Cache_Controller.E.Load    |     2053044     62.85%     62.85% |     1213278     37.15%    100.00%
system.ruby.L0Cache_Controller.E.Load::total      3266322                      
system.ruby.L0Cache_Controller.E.Ifetch  |    85562850     95.85%     95.85% |     3700320      4.15%    100.00%
system.ruby.L0Cache_Controller.E.Ifetch::total     89263170                      
system.ruby.L0Cache_Controller.E.Store   |         356     80.00%     80.00% |          89     20.00%    100.00%
system.ruby.L0Cache_Controller.E.Store::total          445                      
system.ruby.L0Cache_Controller.E.Inv     |        1414     46.76%     46.76% |        1610     53.24%    100.00%
system.ruby.L0Cache_Controller.E.Inv::total         3024                      
system.ruby.L0Cache_Controller.E.L0_Replacement |         738      0.87%      0.87% |       84333     99.13%    100.00%
system.ruby.L0Cache_Controller.E.L0_Replacement::total        85071                      
system.ruby.L0Cache_Controller.M.Load    |    12887655     99.90%     99.90% |       12354      0.10%    100.00%
system.ruby.L0Cache_Controller.M.Load::total     12900009                      
system.ruby.L0Cache_Controller.M.Store   |    12841969     99.81%     99.81% |       23943      0.19%    100.00%
system.ruby.L0Cache_Controller.M.Store::total     12865912                      
system.ruby.L0Cache_Controller.M.Inv     |         509     85.98%     85.98% |          83     14.02%    100.00%
system.ruby.L0Cache_Controller.M.Inv::total          592                      
system.ruby.L0Cache_Controller.M.L0_Replacement |       61576     98.74%     98.74% |         786      1.26%    100.00%
system.ruby.L0Cache_Controller.M.L0_Replacement::total        62362                      
system.ruby.L0Cache_Controller.IS.Data   |          19      2.64%      2.64% |         701     97.36%    100.00%
system.ruby.L0Cache_Controller.IS.Data::total          720                      
system.ruby.L0Cache_Controller.IS.Data_Exclusive |        3014      3.38%      3.38% |       86048     96.62%    100.00%
system.ruby.L0Cache_Controller.IS.Data_Exclusive::total        89062                      
system.ruby.L0Cache_Controller.IM.Data_Exclusive |       61782     98.74%     98.74% |         791      1.26%    100.00%
system.ruby.L0Cache_Controller.IM.Data_Exclusive::total        62573                      
system.ruby.L0Cache_Controller.SM.Data_Exclusive |          10     90.91%     90.91% |           1      9.09%    100.00%
system.ruby.L0Cache_Controller.SM.Data_Exclusive::total           11                      
system.ruby.L1Cache_Controller.Load      |        3033      3.38%      3.38% |       86749     96.62%    100.00%
system.ruby.L1Cache_Controller.Load::total        89782                      
system.ruby.L1Cache_Controller.Store     |       61792     98.73%     98.73% |         792      1.27%    100.00%
system.ruby.L1Cache_Controller.Store::total        62584                      
system.ruby.L1Cache_Controller.WriteBack |       62314     42.27%     42.27% |       85119     57.73%    100.00%
system.ruby.L1Cache_Controller.WriteBack::total       147433                      
system.ruby.L1Cache_Controller.L0_DataAck |         509     85.98%     85.98% |          83     14.02%    100.00%
system.ruby.L1Cache_Controller.L0_DataAck::total          592                      
system.ruby.L1Cache_Controller.Inv       |           2     16.67%     16.67% |          10     83.33%    100.00%
system.ruby.L1Cache_Controller.Inv::total           12                      
system.ruby.L1Cache_Controller.L0_Invalidate_Own |        3630     51.29%     51.29% |        3448     48.71%    100.00%
system.ruby.L1Cache_Controller.L0_Invalidate_Own::total         7078                      
system.ruby.L1Cache_Controller.L0_Invalidate_Else |         224     90.32%     90.32% |          24      9.68%    100.00%
system.ruby.L1Cache_Controller.L0_Invalidate_Else::total          248                      
system.ruby.L1Cache_Controller.L1_Replacement |       63557     44.45%     44.45% |       79424     55.55%    100.00%
system.ruby.L1Cache_Controller.L1_Replacement::total       142981                      
system.ruby.L1Cache_Controller.Fwd_GETX  |           0      0.00%      0.00% |           1    100.00%    100.00%
system.ruby.L1Cache_Controller.Fwd_GETX::total            1                      
system.ruby.L1Cache_Controller.Fwd_GETS  |         665     99.11%     99.11% |           6      0.89%    100.00%
system.ruby.L1Cache_Controller.Fwd_GETS::total          671                      
system.ruby.L1Cache_Controller.Data      |           0      0.00%      0.00% |           1    100.00%    100.00%
system.ruby.L1Cache_Controller.Data::total            1                      
system.ruby.L1Cache_Controller.Data_Exclusive |        2824      3.45%      3.45% |       78959     96.55%    100.00%
system.ruby.L1Cache_Controller.Data_Exclusive::total        81783                      
system.ruby.L1Cache_Controller.DataS_fromL1 |           6      0.89%      0.89% |         665     99.11%    100.00%
system.ruby.L1Cache_Controller.DataS_fromL1::total          671                      
system.ruby.L1Cache_Controller.Data_all_Acks |       61753     98.68%     98.68% |         823      1.32%    100.00%
system.ruby.L1Cache_Controller.Data_all_Acks::total        62576                      
system.ruby.L1Cache_Controller.L0_Ack    |        1418     46.17%     46.17% |        1653     53.83%    100.00%
system.ruby.L1Cache_Controller.L0_Ack::total         3071                      
system.ruby.L1Cache_Controller.Ack       |          10     90.91%     90.91% |           1      9.09%    100.00%
system.ruby.L1Cache_Controller.Ack::total           11                      
system.ruby.L1Cache_Controller.Ack_all   |          10     83.33%     83.33% |           2     16.67%    100.00%
system.ruby.L1Cache_Controller.Ack_all::total           12                      
system.ruby.L1Cache_Controller.WB_Ack    |       63103     44.29%     44.29% |       79387     55.71%    100.00%
system.ruby.L1Cache_Controller.WB_Ack::total       142490                      
system.ruby.L1Cache_Controller.NP.Load   |        2833      3.43%      3.43% |       79658     96.57%    100.00%
system.ruby.L1Cache_Controller.NP.Load::total        82491                      
system.ruby.L1Cache_Controller.NP.Store  |       61750     98.74%     98.74% |         790      1.26%    100.00%
system.ruby.L1Cache_Controller.NP.Store::total        62540                      
system.ruby.L1Cache_Controller.NP.Inv    |           0      0.00%      0.00% |           1    100.00%    100.00%
system.ruby.L1Cache_Controller.NP.Inv::total            1                      
system.ruby.L1Cache_Controller.S.Load    |           0      0.00%      0.00% |           2    100.00%    100.00%
system.ruby.L1Cache_Controller.S.Load::total            2                      
system.ruby.L1Cache_Controller.S.Store   |          10     90.91%     90.91% |           1      9.09%    100.00%
system.ruby.L1Cache_Controller.S.Store::total           11                      
system.ruby.L1Cache_Controller.S.L0_Invalidate_Own |           2      5.13%      5.13% |          37     94.87%    100.00%
system.ruby.L1Cache_Controller.S.L0_Invalidate_Own::total           39                      
system.ruby.L1Cache_Controller.S.L0_Invalidate_Else |           2     25.00%     25.00% |           6     75.00%    100.00%
system.ruby.L1Cache_Controller.S.L0_Invalidate_Else::total            8                      
system.ruby.L1Cache_Controller.SS.Load   |          10    100.00%    100.00% |           0      0.00%    100.00%
system.ruby.L1Cache_Controller.SS.Load::total           10                      
system.ruby.L1Cache_Controller.SS.Inv    |           2     18.18%     18.18% |           9     81.82%    100.00%
system.ruby.L1Cache_Controller.SS.Inv::total           11                      
system.ruby.L1Cache_Controller.SS.L1_Replacement |         454     92.46%     92.46% |          37      7.54%    100.00%
system.ruby.L1Cache_Controller.SS.L1_Replacement::total          491                      
system.ruby.L1Cache_Controller.E.WriteBack |         751      0.96%      0.96% |       77713     99.04%    100.00%
system.ruby.L1Cache_Controller.E.WriteBack::total        78464                      
system.ruby.L1Cache_Controller.E.L0_Invalidate_Own |        1569     56.12%     56.12% |        1227     43.88%    100.00%
system.ruby.L1Cache_Controller.E.L0_Invalidate_Own::total         2796                      
system.ruby.L1Cache_Controller.E.L0_Invalidate_Else |           5     71.43%     71.43% |           2     28.57%    100.00%
system.ruby.L1Cache_Controller.E.L0_Invalidate_Else::total            7                      
system.ruby.L1Cache_Controller.EE.L1_Replacement |        1369     54.35%     54.35% |        1150     45.65%    100.00%
system.ruby.L1Cache_Controller.EE.L1_Replacement::total         2519                      
system.ruby.L1Cache_Controller.EE.Fwd_GETS |           5     71.43%     71.43% |           2     28.57%    100.00%
system.ruby.L1Cache_Controller.EE.Fwd_GETS::total            7                      
system.ruby.L1Cache_Controller.M.WriteBack |       61563     89.26%     89.26% |        7406     10.74%    100.00%
system.ruby.L1Cache_Controller.M.WriteBack::total        68969                      
system.ruby.L1Cache_Controller.M.L0_Invalidate_Own |         244     34.66%     34.66% |         460     65.34%    100.00%
system.ruby.L1Cache_Controller.M.L0_Invalidate_Own::total          704                      
system.ruby.L1Cache_Controller.M.L0_Invalidate_Else |         105     96.33%     96.33% |           4      3.67%    100.00%
system.ruby.L1Cache_Controller.M.L0_Invalidate_Else::total          109                      
system.ruby.L1Cache_Controller.MM.Load   |         190      2.61%      2.61% |        7089     97.39%    100.00%
system.ruby.L1Cache_Controller.MM.Load::total         7279                      
system.ruby.L1Cache_Controller.MM.Store  |          32     96.97%     96.97% |           1      3.03%    100.00%
system.ruby.L1Cache_Controller.MM.Store::total           33                      
system.ruby.L1Cache_Controller.MM.L1_Replacement |       61734     44.10%     44.10% |       78237     55.90%    100.00%
system.ruby.L1Cache_Controller.MM.L1_Replacement::total       139971                      
system.ruby.L1Cache_Controller.MM.Fwd_GETX |           0      0.00%      0.00% |           1    100.00%    100.00%
system.ruby.L1Cache_Controller.MM.Fwd_GETX::total            1                      
system.ruby.L1Cache_Controller.MM.Fwd_GETS |         660     99.40%     99.40% |           4      0.60%    100.00%
system.ruby.L1Cache_Controller.MM.Fwd_GETS::total          664                      
system.ruby.L1Cache_Controller.IS.Data_Exclusive |        2824      3.45%      3.45% |       78959     96.55%    100.00%
system.ruby.L1Cache_Controller.IS.Data_Exclusive::total        81783                      
system.ruby.L1Cache_Controller.IS.DataS_fromL1 |           6      0.89%      0.89% |         665     99.11%    100.00%
system.ruby.L1Cache_Controller.IS.DataS_fromL1::total          671                      
system.ruby.L1Cache_Controller.IS.Data_all_Acks |           3      8.11%      8.11% |          34     91.89%    100.00%
system.ruby.L1Cache_Controller.IS.Data_all_Acks::total           37                      
system.ruby.L1Cache_Controller.IM.Data   |           0      0.00%      0.00% |           1    100.00%    100.00%
system.ruby.L1Cache_Controller.IM.Data::total            1                      
system.ruby.L1Cache_Controller.IM.Data_all_Acks |       61750     98.74%     98.74% |         789      1.26%    100.00%
system.ruby.L1Cache_Controller.IM.Data_all_Acks::total        62539                      
system.ruby.L1Cache_Controller.SM.Ack    |          10     90.91%     90.91% |           1      9.09%    100.00%
system.ruby.L1Cache_Controller.SM.Ack::total           11                      
system.ruby.L1Cache_Controller.SM.Ack_all |          10     83.33%     83.33% |           2     16.67%    100.00%
system.ruby.L1Cache_Controller.SM.Ack_all::total           12                      
system.ruby.L1Cache_Controller.M_I.WB_Ack |       63103     44.29%     44.29% |       79387     55.71%    100.00%
system.ruby.L1Cache_Controller.M_I.WB_Ack::total       142490                      
system.ruby.L1Cache_Controller.S_IL0.L0_Invalidate_Own |           2      5.13%      5.13% |          37     94.87%    100.00%
system.ruby.L1Cache_Controller.S_IL0.L0_Invalidate_Own::total           39                      
system.ruby.L1Cache_Controller.S_IL0.L0_Invalidate_Else |           2     25.00%     25.00% |           6     75.00%    100.00%
system.ruby.L1Cache_Controller.S_IL0.L0_Invalidate_Else::total            8                      
system.ruby.L1Cache_Controller.S_IL0.L0_Ack |           4      8.51%      8.51% |          43     91.49%    100.00%
system.ruby.L1Cache_Controller.S_IL0.L0_Ack::total           47                      
system.ruby.L1Cache_Controller.E_IL0.L0_DataAck |         200     72.20%     72.20% |          77     27.80%    100.00%
system.ruby.L1Cache_Controller.E_IL0.L0_DataAck::total          277                      
system.ruby.L1Cache_Controller.E_IL0.L0_Invalidate_Own |        1569     56.12%     56.12% |        1227     43.88%    100.00%
system.ruby.L1Cache_Controller.E_IL0.L0_Invalidate_Own::total         2796                      
system.ruby.L1Cache_Controller.E_IL0.L0_Invalidate_Else |           5     71.43%     71.43% |           2     28.57%    100.00%
system.ruby.L1Cache_Controller.E_IL0.L0_Invalidate_Else::total            7                      
system.ruby.L1Cache_Controller.E_IL0.L0_Ack |        1374     54.39%     54.39% |        1152     45.61%    100.00%
system.ruby.L1Cache_Controller.E_IL0.L0_Ack::total         2526                      
system.ruby.L1Cache_Controller.M_IL0.L0_DataAck |         309     98.10%     98.10% |           6      1.90%    100.00%
system.ruby.L1Cache_Controller.M_IL0.L0_DataAck::total          315                      
system.ruby.L1Cache_Controller.M_IL0.L0_Invalidate_Own |         244     34.66%     34.66% |         460     65.34%    100.00%
system.ruby.L1Cache_Controller.M_IL0.L0_Invalidate_Own::total          704                      
system.ruby.L1Cache_Controller.M_IL0.L0_Invalidate_Else |         105     96.33%     96.33% |           4      3.67%    100.00%
system.ruby.L1Cache_Controller.M_IL0.L0_Invalidate_Else::total          109                      
system.ruby.L1Cache_Controller.M_IL0.L0_Ack |          40      8.03%      8.03% |         458     91.97%    100.00%
system.ruby.L1Cache_Controller.M_IL0.L0_Ack::total          498                      
system.ruby.L2Cache_Controller.L1_GETS          82491      0.00%      0.00%
system.ruby.L2Cache_Controller.L1_GETX          62540      0.00%      0.00%
system.ruby.L2Cache_Controller.L1_UPGRADE           11      0.00%      0.00%
system.ruby.L2Cache_Controller.L1_PUTX         142490      0.00%      0.00%
system.ruby.L2Cache_Controller.Mem_Data         63694      0.00%      0.00%
system.ruby.L2Cache_Controller.WB_Data            670      0.00%      0.00%
system.ruby.L2Cache_Controller.WB_Data_clean            1      0.00%      0.00%
system.ruby.L2Cache_Controller.Unblock            671      0.00%      0.00%
system.ruby.L2Cache_Controller.Exclusive_Unblock       144334      0.00%      0.00%
system.ruby.L2Cache_Controller.NP.L1_GETS         1416      0.00%      0.00%
system.ruby.L2Cache_Controller.NP.L1_GETX        62278      0.00%      0.00%
system.ruby.L2Cache_Controller.SS.L1_GETS           35      0.00%      0.00%
system.ruby.L2Cache_Controller.SS.L1_GETX            1      0.00%      0.00%
system.ruby.L2Cache_Controller.SS.L1_UPGRADE           11      0.00%      0.00%
system.ruby.L2Cache_Controller.M.L1_GETS        80368      0.00%      0.00%
system.ruby.L2Cache_Controller.M.L1_GETX          260      0.00%      0.00%
system.ruby.L2Cache_Controller.MT.L1_GETS          671      0.00%      0.00%
system.ruby.L2Cache_Controller.MT.L1_GETX            1      0.00%      0.00%
system.ruby.L2Cache_Controller.MT.L1_PUTX       142490      0.00%      0.00%
system.ruby.L2Cache_Controller.ISS.L1_GETS            1      0.00%      0.00%
system.ruby.L2Cache_Controller.ISS.Mem_Data         1415      0.00%      0.00%
system.ruby.L2Cache_Controller.IS.Mem_Data            1      0.00%      0.00%
system.ruby.L2Cache_Controller.IM.Mem_Data        62278      0.00%      0.00%
system.ruby.L2Cache_Controller.SS_MB.Exclusive_Unblock           12      0.00%      0.00%
system.ruby.L2Cache_Controller.MT_MB.Exclusive_Unblock       144322      0.00%      0.00%
system.ruby.L2Cache_Controller.MT_IIB.WB_Data          670      0.00%      0.00%
system.ruby.L2Cache_Controller.MT_IIB.WB_Data_clean            1      0.00%      0.00%
system.ruby.L2Cache_Controller.MT_SB.Unblock          671      0.00%      0.00%

---------- End Simulation Statistics   ----------
