./MNIST_Sparse.sh: line 4: p: command not found
MODELOPTS=--forwardsparsity 33 --activationcachelinesparsity 14 --backwardsparsity 83 --signalcachelinesparsity 81 --weightupdatesparsity 5 --deltacachelinesparsity 0 --model MNIST
CacheSizeOpts=--l1i_size=32kB --l1d_size=32kB --l2_size=256kB --l3_size=20MB
Run SparseCompute in GEM5-Ruby
GEM5=/home/tunji/sc-dnn/code/gem5-stable/build/X86_MESI_Three_Level/gem5.opt
SCRIPT=/home/tunji/sc-dnn/code/gem5-stable/configs/example/se.py
PROGDIR=/home/tunji/sc-dnn/code/SparseCompute
PROGOPTS=--samples 1 --threads 1 --forwardsparsity 33 --activationcachelinesparsity 14 --backwardsparsity 83 --signalcachelinesparsity 81 --weightupdatesparsity 5 --deltacachelinesparsity 0 --model MNIST --workers 1
SIMOPTS=--ruby --cpu-type=timing --caches --l2cache --num-l3caches=1 --l1d_size=32kB --l1i_size=32kB --l2_size=256kB --l3_size=20MB --num-cpus=2
gem5 Simulator System.  http://gem5.org
gem5 is copyrighted software; use the --copyright option for details.

gem5 compiled Nov 18 2015 23:15:21
gem5 started Nov 20 2015 11:29:00
gem5 executing on tunji-Virtual-Machine
command line: /home/tunji/sc-dnn/code/gem5-stable/build/X86_MESI_Three_Level/gem5.opt -d MNIST_1W-L3-1_1_1/ruby-k1 /home/tunji/sc-dnn/code/gem5-stable/configs/example/se.py --ruby --cpu-type=timing --caches --l2cache --num-l3caches=1 --l1d_size=32kB --l1i_size=32kB --l2_size=256kB --l3_size=20MB --num-cpus=2 -c /home/tunji/sc-dnn/code/SparseCompute/M5SparseCompute -o --kernel 1 --samples 1 --threads 1 --forwardsparsity 33 --activationcachelinesparsity 14 --backwardsparsity 83 --signalcachelinesparsity 81 --weightupdatesparsity 5 --deltacachelinesparsity 0 --model MNIST --workers 1
Global frequency set at 1000000000000 ticks per second
warn: DRAM device capacity (8192 Mbytes) does not match the address range assigned (512 Mbytes)
0: system.remote_gdb.listener: listening for remote gdb #0 on port 7002
0: system.remote_gdb.listener: listening for remote gdb #1 on port 7003
**** REAL SIMULATION ****
info: Entering event queue @ 0.  Starting simulation...
info: Increasing stack size by one page.
warn: ignoring syscall access(5373089, ...)
Model: MNIST 
Pass: ALL 
WorkerCount: 1 
ThreadCount: 1 
SampleCount: 1 
KernelVersion: UNROLL
FeedForwardSparsity: 33
ActivationCacheLineSparsity: 14
BackPropSparsity: 83
SignalCacheLineSparsity: 81
WeightUpdateSparsity: 5
DeltaCacheLineSparsity: 0
Layers     Threads    GFLOP/s    MSec       FLOPs     
