
---------- Begin Simulation Statistics ----------
sim_seconds                                  0.117153                       # Number of seconds simulated
sim_ticks                                117153438500                       # Number of ticks simulated
final_tick                               117153438500                       # Number of ticks from beginning of simulation (restored from checkpoints and never reset)
sim_freq                                 1000000000000                       # Frequency of simulated ticks
host_inst_rate                                  80361                       # Simulator instruction rate (inst/s)
host_op_rate                                   221926                       # Simulator op (including micro ops) rate (op/s)
host_tick_rate                              137611103                       # Simulator tick rate (ticks/s)
host_mem_usage                                 787848                       # Number of bytes of host memory used
host_seconds                                   851.34                       # Real time elapsed on the host
sim_insts                                    68414253                       # Number of instructions simulated
sim_ops                                     188934239                       # Number of ops (including micro ops) simulated
system.voltage_domain.voltage                       1                       # Voltage in Volts
system.clk_domain.clock                          1000                       # Clock period in ticks
system.mem_ctrls.bytes_read::ruby.dir_cntrl0      4076352                       # Number of bytes read from this memory
system.mem_ctrls.bytes_read::total            4076352                       # Number of bytes read from this memory
system.mem_ctrls.num_reads::ruby.dir_cntrl0        63693                       # Number of read requests responded to by this memory
system.mem_ctrls.num_reads::total               63693                       # Number of read requests responded to by this memory
system.mem_ctrls.bw_read::ruby.dir_cntrl0     34794984                       # Total read bandwidth from this memory (bytes/s)
system.mem_ctrls.bw_read::total              34794984                       # Total read bandwidth from this memory (bytes/s)
system.mem_ctrls.bw_total::ruby.dir_cntrl0     34794984                       # Total bandwidth to/from this memory (bytes/s)
system.mem_ctrls.bw_total::total             34794984                       # Total bandwidth to/from this memory (bytes/s)
system.mem_ctrls.readReqs                       63693                       # Number of read requests accepted
system.mem_ctrls.writeReqs                          0                       # Number of write requests accepted
system.mem_ctrls.readBursts                     63693                       # Number of DRAM read bursts, including those serviced by the write queue
system.mem_ctrls.writeBursts                        0                       # Number of DRAM write bursts, including those merged in the write queue
system.mem_ctrls.bytesReadDRAM                4076352                       # Total number of bytes read from DRAM
system.mem_ctrls.bytesReadWrQ                       0                       # Total number of bytes read from write queue
system.mem_ctrls.bytesWritten                       0                       # Total number of bytes written to DRAM
system.mem_ctrls.bytesReadSys                 4076352                       # Total read bytes from the system interface side
system.mem_ctrls.bytesWrittenSys                    0                       # Total written bytes from the system interface side
system.mem_ctrls.servicedByWrQ                      0                       # Number of DRAM read bursts serviced by the write queue
system.mem_ctrls.mergedWrBursts                     0                       # Number of DRAM write bursts merged with an existing one
system.mem_ctrls.neitherReadNorWriteReqs            0                       # Number of requests that are neither read nor write
system.mem_ctrls.perBankRdBursts::0              3937                       # Per bank write bursts
system.mem_ctrls.perBankRdBursts::1              3940                       # Per bank write bursts
system.mem_ctrls.perBankRdBursts::2              3866                       # Per bank write bursts
system.mem_ctrls.perBankRdBursts::3              3712                       # Per bank write bursts
system.mem_ctrls.perBankRdBursts::4              3836                       # Per bank write bursts
system.mem_ctrls.perBankRdBursts::5              3832                       # Per bank write bursts
system.mem_ctrls.perBankRdBursts::6              4125                       # Per bank write bursts
system.mem_ctrls.perBankRdBursts::7              4183                       # Per bank write bursts
system.mem_ctrls.perBankRdBursts::8              4010                       # Per bank write bursts
system.mem_ctrls.perBankRdBursts::9              4108                       # Per bank write bursts
system.mem_ctrls.perBankRdBursts::10             4175                       # Per bank write bursts
system.mem_ctrls.perBankRdBursts::11             4225                       # Per bank write bursts
system.mem_ctrls.perBankRdBursts::12             4053                       # Per bank write bursts
system.mem_ctrls.perBankRdBursts::13             3929                       # Per bank write bursts
system.mem_ctrls.perBankRdBursts::14             3871                       # Per bank write bursts
system.mem_ctrls.perBankRdBursts::15             3891                       # Per bank write bursts
system.mem_ctrls.perBankWrBursts::0                 0                       # Per bank write bursts
system.mem_ctrls.perBankWrBursts::1                 0                       # Per bank write bursts
system.mem_ctrls.perBankWrBursts::2                 0                       # Per bank write bursts
system.mem_ctrls.perBankWrBursts::3                 0                       # Per bank write bursts
system.mem_ctrls.perBankWrBursts::4                 0                       # Per bank write bursts
system.mem_ctrls.perBankWrBursts::5                 0                       # Per bank write bursts
system.mem_ctrls.perBankWrBursts::6                 0                       # Per bank write bursts
system.mem_ctrls.perBankWrBursts::7                 0                       # Per bank write bursts
system.mem_ctrls.perBankWrBursts::8                 0                       # Per bank write bursts
system.mem_ctrls.perBankWrBursts::9                 0                       # Per bank write bursts
system.mem_ctrls.perBankWrBursts::10                0                       # Per bank write bursts
system.mem_ctrls.perBankWrBursts::11                0                       # Per bank write bursts
system.mem_ctrls.perBankWrBursts::12                0                       # Per bank write bursts
system.mem_ctrls.perBankWrBursts::13                0                       # Per bank write bursts
system.mem_ctrls.perBankWrBursts::14                0                       # Per bank write bursts
system.mem_ctrls.perBankWrBursts::15                0                       # Per bank write bursts
system.mem_ctrls.numRdRetry                         0                       # Number of times read queue was full causing retry
system.mem_ctrls.numWrRetry                         0                       # Number of times write queue was full causing retry
system.mem_ctrls.totGap                  117153375500                       # Total gap between requests
system.mem_ctrls.readPktSize::0                     0                       # Read request sizes (log2)
system.mem_ctrls.readPktSize::1                     0                       # Read request sizes (log2)
system.mem_ctrls.readPktSize::2                     0                       # Read request sizes (log2)
system.mem_ctrls.readPktSize::3                     0                       # Read request sizes (log2)
system.mem_ctrls.readPktSize::4                     0                       # Read request sizes (log2)
system.mem_ctrls.readPktSize::5                     0                       # Read request sizes (log2)
system.mem_ctrls.readPktSize::6                 63693                       # Read request sizes (log2)
system.mem_ctrls.writePktSize::0                    0                       # Write request sizes (log2)
system.mem_ctrls.writePktSize::1                    0                       # Write request sizes (log2)
system.mem_ctrls.writePktSize::2                    0                       # Write request sizes (log2)
system.mem_ctrls.writePktSize::3                    0                       # Write request sizes (log2)
system.mem_ctrls.writePktSize::4                    0                       # Write request sizes (log2)
system.mem_ctrls.writePktSize::5                    0                       # Write request sizes (log2)
system.mem_ctrls.writePktSize::6                    0                       # Write request sizes (log2)
system.mem_ctrls.rdQLenPdf::0                   63691                       # What read queue length does an incoming req see
system.mem_ctrls.rdQLenPdf::1                       2                       # What read queue length does an incoming req see
system.mem_ctrls.rdQLenPdf::2                       0                       # What read queue length does an incoming req see
system.mem_ctrls.rdQLenPdf::3                       0                       # What read queue length does an incoming req see
system.mem_ctrls.rdQLenPdf::4                       0                       # What read queue length does an incoming req see
system.mem_ctrls.rdQLenPdf::5                       0                       # What read queue length does an incoming req see
system.mem_ctrls.rdQLenPdf::6                       0                       # What read queue length does an incoming req see
system.mem_ctrls.rdQLenPdf::7                       0                       # What read queue length does an incoming req see
system.mem_ctrls.rdQLenPdf::8                       0                       # What read queue length does an incoming req see
system.mem_ctrls.rdQLenPdf::9                       0                       # What read queue length does an incoming req see
system.mem_ctrls.rdQLenPdf::10                      0                       # What read queue length does an incoming req see
system.mem_ctrls.rdQLenPdf::11                      0                       # What read queue length does an incoming req see
system.mem_ctrls.rdQLenPdf::12                      0                       # What read queue length does an incoming req see
system.mem_ctrls.rdQLenPdf::13                      0                       # What read queue length does an incoming req see
system.mem_ctrls.rdQLenPdf::14                      0                       # What read queue length does an incoming req see
system.mem_ctrls.rdQLenPdf::15                      0                       # What read queue length does an incoming req see
system.mem_ctrls.rdQLenPdf::16                      0                       # What read queue length does an incoming req see
system.mem_ctrls.rdQLenPdf::17                      0                       # What read queue length does an incoming req see
system.mem_ctrls.rdQLenPdf::18                      0                       # What read queue length does an incoming req see
system.mem_ctrls.rdQLenPdf::19                      0                       # What read queue length does an incoming req see
system.mem_ctrls.rdQLenPdf::20                      0                       # What read queue length does an incoming req see
system.mem_ctrls.rdQLenPdf::21                      0                       # What read queue length does an incoming req see
system.mem_ctrls.rdQLenPdf::22                      0                       # What read queue length does an incoming req see
system.mem_ctrls.rdQLenPdf::23                      0                       # What read queue length does an incoming req see
system.mem_ctrls.rdQLenPdf::24                      0                       # What read queue length does an incoming req see
system.mem_ctrls.rdQLenPdf::25                      0                       # What read queue length does an incoming req see
system.mem_ctrls.rdQLenPdf::26                      0                       # What read queue length does an incoming req see
system.mem_ctrls.rdQLenPdf::27                      0                       # What read queue length does an incoming req see
system.mem_ctrls.rdQLenPdf::28                      0                       # What read queue length does an incoming req see
system.mem_ctrls.rdQLenPdf::29                      0                       # What read queue length does an incoming req see
system.mem_ctrls.rdQLenPdf::30                      0                       # What read queue length does an incoming req see
system.mem_ctrls.rdQLenPdf::31                      0                       # What read queue length does an incoming req see
system.mem_ctrls.wrQLenPdf::0                       0                       # What write queue length does an incoming req see
system.mem_ctrls.wrQLenPdf::1                       0                       # What write queue length does an incoming req see
system.mem_ctrls.wrQLenPdf::2                       0                       # What write queue length does an incoming req see
system.mem_ctrls.wrQLenPdf::3                       0                       # What write queue length does an incoming req see
system.mem_ctrls.wrQLenPdf::4                       0                       # What write queue length does an incoming req see
system.mem_ctrls.wrQLenPdf::5                       0                       # What write queue length does an incoming req see
system.mem_ctrls.wrQLenPdf::6                       0                       # What write queue length does an incoming req see
system.mem_ctrls.wrQLenPdf::7                       0                       # What write queue length does an incoming req see
system.mem_ctrls.wrQLenPdf::8                       0                       # What write queue length does an incoming req see
system.mem_ctrls.wrQLenPdf::9                       0                       # What write queue length does an incoming req see
system.mem_ctrls.wrQLenPdf::10                      0                       # What write queue length does an incoming req see
system.mem_ctrls.wrQLenPdf::11                      0                       # What write queue length does an incoming req see
system.mem_ctrls.wrQLenPdf::12                      0                       # What write queue length does an incoming req see
system.mem_ctrls.wrQLenPdf::13                      0                       # What write queue length does an incoming req see
system.mem_ctrls.wrQLenPdf::14                      0                       # What write queue length does an incoming req see
system.mem_ctrls.wrQLenPdf::15                      0                       # What write queue length does an incoming req see
system.mem_ctrls.wrQLenPdf::16                      0                       # What write queue length does an incoming req see
system.mem_ctrls.wrQLenPdf::17                      0                       # What write queue length does an incoming req see
system.mem_ctrls.wrQLenPdf::18                      0                       # What write queue length does an incoming req see
system.mem_ctrls.wrQLenPdf::19                      0                       # What write queue length does an incoming req see
system.mem_ctrls.wrQLenPdf::20                      0                       # What write queue length does an incoming req see
system.mem_ctrls.wrQLenPdf::21                      0                       # What write queue length does an incoming req see
system.mem_ctrls.wrQLenPdf::22                      0                       # What write queue length does an incoming req see
system.mem_ctrls.wrQLenPdf::23                      0                       # What write queue length does an incoming req see
system.mem_ctrls.wrQLenPdf::24                      0                       # What write queue length does an incoming req see
system.mem_ctrls.wrQLenPdf::25                      0                       # What write queue length does an incoming req see
system.mem_ctrls.wrQLenPdf::26                      0                       # What write queue length does an incoming req see
system.mem_ctrls.wrQLenPdf::27                      0                       # What write queue length does an incoming req see
system.mem_ctrls.wrQLenPdf::28                      0                       # What write queue length does an incoming req see
system.mem_ctrls.wrQLenPdf::29                      0                       # What write queue length does an incoming req see
system.mem_ctrls.wrQLenPdf::30                      0                       # What write queue length does an incoming req see
system.mem_ctrls.wrQLenPdf::31                      0                       # What write queue length does an incoming req see
system.mem_ctrls.wrQLenPdf::32                      0                       # What write queue length does an incoming req see
system.mem_ctrls.wrQLenPdf::33                      0                       # What write queue length does an incoming req see
system.mem_ctrls.wrQLenPdf::34                      0                       # What write queue length does an incoming req see
system.mem_ctrls.wrQLenPdf::35                      0                       # What write queue length does an incoming req see
system.mem_ctrls.wrQLenPdf::36                      0                       # What write queue length does an incoming req see
system.mem_ctrls.wrQLenPdf::37                      0                       # What write queue length does an incoming req see
system.mem_ctrls.wrQLenPdf::38                      0                       # What write queue length does an incoming req see
system.mem_ctrls.wrQLenPdf::39                      0                       # What write queue length does an incoming req see
system.mem_ctrls.wrQLenPdf::40                      0                       # What write queue length does an incoming req see
system.mem_ctrls.wrQLenPdf::41                      0                       # What write queue length does an incoming req see
system.mem_ctrls.wrQLenPdf::42                      0                       # What write queue length does an incoming req see
system.mem_ctrls.wrQLenPdf::43                      0                       # What write queue length does an incoming req see
system.mem_ctrls.wrQLenPdf::44                      0                       # What write queue length does an incoming req see
system.mem_ctrls.wrQLenPdf::45                      0                       # What write queue length does an incoming req see
system.mem_ctrls.wrQLenPdf::46                      0                       # What write queue length does an incoming req see
system.mem_ctrls.wrQLenPdf::47                      0                       # What write queue length does an incoming req see
system.mem_ctrls.wrQLenPdf::48                      0                       # What write queue length does an incoming req see
system.mem_ctrls.wrQLenPdf::49                      0                       # What write queue length does an incoming req see
system.mem_ctrls.wrQLenPdf::50                      0                       # What write queue length does an incoming req see
system.mem_ctrls.wrQLenPdf::51                      0                       # What write queue length does an incoming req see
system.mem_ctrls.wrQLenPdf::52                      0                       # What write queue length does an incoming req see
system.mem_ctrls.wrQLenPdf::53                      0                       # What write queue length does an incoming req see
system.mem_ctrls.wrQLenPdf::54                      0                       # What write queue length does an incoming req see
system.mem_ctrls.wrQLenPdf::55                      0                       # What write queue length does an incoming req see
system.mem_ctrls.wrQLenPdf::56                      0                       # What write queue length does an incoming req see
system.mem_ctrls.wrQLenPdf::57                      0                       # What write queue length does an incoming req see
system.mem_ctrls.wrQLenPdf::58                      0                       # What write queue length does an incoming req see
system.mem_ctrls.wrQLenPdf::59                      0                       # What write queue length does an incoming req see
system.mem_ctrls.wrQLenPdf::60                      0                       # What write queue length does an incoming req see
system.mem_ctrls.wrQLenPdf::61                      0                       # What write queue length does an incoming req see
system.mem_ctrls.wrQLenPdf::62                      0                       # What write queue length does an incoming req see
system.mem_ctrls.wrQLenPdf::63                      0                       # What write queue length does an incoming req see
system.mem_ctrls.bytesPerActivate::samples        15524                       # Bytes accessed per row activation
system.mem_ctrls.bytesPerActivate::mean    262.522030                       # Bytes accessed per row activation
system.mem_ctrls.bytesPerActivate::gmean   251.474012                       # Bytes accessed per row activation
system.mem_ctrls.bytesPerActivate::stdev    72.337265                       # Bytes accessed per row activation
system.mem_ctrls.bytesPerActivate::0-127          600      3.86%      3.86% # Bytes accessed per row activation
system.mem_ctrls.bytesPerActivate::128-255          688      4.43%      8.30% # Bytes accessed per row activation
system.mem_ctrls.bytesPerActivate::256-383        13961     89.93%     98.23% # Bytes accessed per row activation
system.mem_ctrls.bytesPerActivate::384-511          163      1.05%     99.28% # Bytes accessed per row activation
system.mem_ctrls.bytesPerActivate::512-639           29      0.19%     99.47% # Bytes accessed per row activation
system.mem_ctrls.bytesPerActivate::640-767           18      0.12%     99.58% # Bytes accessed per row activation
system.mem_ctrls.bytesPerActivate::768-895           16      0.10%     99.68% # Bytes accessed per row activation
system.mem_ctrls.bytesPerActivate::896-1023           16      0.10%     99.79% # Bytes accessed per row activation
system.mem_ctrls.bytesPerActivate::1024-1151           33      0.21%    100.00% # Bytes accessed per row activation
system.mem_ctrls.bytesPerActivate::total        15524                       # Bytes accessed per row activation
system.mem_ctrls.totQLat                    725322999                       # Total ticks spent queuing
system.mem_ctrls.totMemAccLat              1919566749                       # Total ticks spent from burst creation until serviced by the DRAM
system.mem_ctrls.totBusLat                  318465000                       # Total ticks spent in databus transfers
system.mem_ctrls.avgQLat                     11387.80                       # Average queueing delay per DRAM burst
system.mem_ctrls.avgBusLat                    5000.00                       # Average bus latency per DRAM burst
system.mem_ctrls.avgMemAccLat                30137.80                       # Average memory access latency per DRAM burst
system.mem_ctrls.avgRdBW                        34.79                       # Average DRAM read bandwidth in MiByte/s
system.mem_ctrls.avgWrBW                         0.00                       # Average achieved write bandwidth in MiByte/s
system.mem_ctrls.avgRdBWSys                     34.79                       # Average system read bandwidth in MiByte/s
system.mem_ctrls.avgWrBWSys                      0.00                       # Average system write bandwidth in MiByte/s
system.mem_ctrls.peakBW                      12800.00                       # Theoretical peak bandwidth in MiByte/s
system.mem_ctrls.busUtil                         0.27                       # Data bus utilization in percentage
system.mem_ctrls.busUtilRead                     0.27                       # Data bus utilization in percentage for reads
system.mem_ctrls.busUtilWrite                    0.00                       # Data bus utilization in percentage for writes
system.mem_ctrls.avgRdQLen                       1.00                       # Average read queue length when enqueuing
system.mem_ctrls.avgWrQLen                       0.00                       # Average write queue length when enqueuing
system.mem_ctrls.readRowHits                    48165                       # Number of row buffer hits during reads
system.mem_ctrls.writeRowHits                       0                       # Number of row buffer hits during writes
system.mem_ctrls.readRowHitRate                 75.62                       # Row buffer hit rate for reads
system.mem_ctrls.writeRowHitRate                  nan                       # Row buffer hit rate for writes
system.mem_ctrls.avgGap                    1839344.60                       # Average gap between requests
system.mem_ctrls.pageHitRate                    75.62                       # Row buffer hit rate, read and write combined
system.mem_ctrls_0.actEnergy                 58552200                       # Energy for activate commands per rank (pJ)
system.mem_ctrls_0.preEnergy                 31948125                       # Energy for precharge commands per rank (pJ)
system.mem_ctrls_0.readEnergy               245138400                       # Energy for read commands per rank (pJ)
system.mem_ctrls_0.writeEnergy                      0                       # Energy for write commands per rank (pJ)
system.mem_ctrls_0.refreshEnergy           7651793760                       # Energy for refresh commands per rank (pJ)
system.mem_ctrls_0.actBackEnergy          36630883845                       # Energy for active background per rank (pJ)
system.mem_ctrls_0.preBackEnergy          38158952250                       # Energy for precharge background per rank (pJ)
system.mem_ctrls_0.totalEnergy            82777268580                       # Total energy per rank (pJ)
system.mem_ctrls_0.averagePower            706.579001                       # Core power per rank (mW)
system.mem_ctrls_0.memoryStateTime::IDLE  63287754750                       # Time in different power states
system.mem_ctrls_0.memoryStateTime::REF    3911960000                       # Time in different power states
system.mem_ctrls_0.memoryStateTime::PRE_PDN            0                       # Time in different power states
system.mem_ctrls_0.memoryStateTime::ACT   49952476500                       # Time in different power states
system.mem_ctrls_0.memoryStateTime::ACT_PDN            0                       # Time in different power states
system.mem_ctrls_1.actEnergy                 58809240                       # Energy for activate commands per rank (pJ)
system.mem_ctrls_1.preEnergy                 32088375                       # Energy for precharge commands per rank (pJ)
system.mem_ctrls_1.readEnergy               251550000                       # Energy for read commands per rank (pJ)
system.mem_ctrls_1.writeEnergy                      0                       # Energy for write commands per rank (pJ)
system.mem_ctrls_1.refreshEnergy           7651793760                       # Energy for refresh commands per rank (pJ)
system.mem_ctrls_1.actBackEnergy          37226237445                       # Energy for active background per rank (pJ)
system.mem_ctrls_1.preBackEnergy          37636712250                       # Energy for precharge background per rank (pJ)
system.mem_ctrls_1.totalEnergy            82857191070                       # Total energy per rank (pJ)
system.mem_ctrls_1.averagePower            707.261212                       # Core power per rank (mW)
system.mem_ctrls_1.memoryStateTime::IDLE  62415118750                       # Time in different power states
system.mem_ctrls_1.memoryStateTime::REF    3911960000                       # Time in different power states
system.mem_ctrls_1.memoryStateTime::PRE_PDN            0                       # Time in different power states
system.mem_ctrls_1.memoryStateTime::ACT   50825267250                       # Time in different power states
system.mem_ctrls_1.memoryStateTime::ACT_PDN            0                       # Time in different power states
system.cpu_voltage_domain.voltage                   1                       # Voltage in Volts
system.cpu_clk_domain.clock                       500                       # Clock period in ticks
system.cpu0.apic_clk_domain.clock                8000                       # Clock period in ticks
system.cpu0.workload.num_syscalls                  61                       # Number of system calls
system.cpu0.numCycles                       234306877                       # number of cpu cycles simulated
system.cpu0.numWorkItemsStarted                     0                       # number of work items this cpu started
system.cpu0.numWorkItemsCompleted                   0                       # number of work items this cpu completed
system.cpu0.committedInsts                   65536737                       # Number of instructions committed
system.cpu0.committedOps                    183180768                       # Number of ops (including micro ops) committed
system.cpu0.num_int_alu_accesses            173149998                       # Number of integer alu accesses
system.cpu0.num_fp_alu_accesses               4747498                       # Number of float alu accesses
system.cpu0.num_func_calls                    6140940                       # number of times a function call or return occured
system.cpu0.num_conditional_control_insts     13943486                       # number of instructions that are conditional controls
system.cpu0.num_int_insts                   173149998                       # number of integer instructions
system.cpu0.num_fp_insts                      4747498                       # number of float instructions
system.cpu0.num_int_register_reads          364703238                       # number of times the integer registers were read
system.cpu0.num_int_register_writes         172011337                       # number of times the integer registers were written
system.cpu0.num_fp_register_reads             7602990                       # number of times the floating registers were read
system.cpu0.num_fp_register_writes            3784978                       # number of times the floating registers were written
system.cpu0.num_cc_register_reads           144767325                       # number of times the CC registers were read
system.cpu0.num_cc_register_writes           54609567                       # number of times the CC registers were written
system.cpu0.num_mem_refs                     28368743                       # number of memory refs
system.cpu0.num_load_insts                   17554858                       # Number of load instructions
system.cpu0.num_store_insts                  10813885                       # Number of store instructions
system.cpu0.num_idle_cycles                  0.002000                       # Number of idle cycles
system.cpu0.num_busy_cycles              234306876.998000                       # Number of busy cycles
system.cpu0.not_idle_fraction                1.000000                       # Percentage of non-idle cycles
system.cpu0.idle_fraction                    0.000000                       # Percentage of idle cycles
system.cpu0.Branches                         23122527                       # Number of branches fetched
system.cpu0.op_class::No_OpClass              3084847      1.68%      1.68% # Class of executed instruction
system.cpu0.op_class::IntAlu                132620530     72.40%     74.08% # Class of executed instruction
system.cpu0.op_class::IntMult                     320      0.00%     74.08% # Class of executed instruction
system.cpu0.op_class::IntDiv                 15322044      8.36%     82.45% # Class of executed instruction
system.cpu0.op_class::FloatAdd                3784284      2.07%     84.51% # Class of executed instruction
system.cpu0.op_class::FloatCmp                      0      0.00%     84.51% # Class of executed instruction
system.cpu0.op_class::FloatCvt                      0      0.00%     84.51% # Class of executed instruction
system.cpu0.op_class::FloatMult                     0      0.00%     84.51% # Class of executed instruction
system.cpu0.op_class::FloatDiv                      0      0.00%     84.51% # Class of executed instruction
system.cpu0.op_class::FloatSqrt                     0      0.00%     84.51% # Class of executed instruction
system.cpu0.op_class::SimdAdd                       0      0.00%     84.51% # Class of executed instruction
system.cpu0.op_class::SimdAddAcc                    0      0.00%     84.51% # Class of executed instruction
system.cpu0.op_class::SimdAlu                       0      0.00%     84.51% # Class of executed instruction
system.cpu0.op_class::SimdCmp                       0      0.00%     84.51% # Class of executed instruction
system.cpu0.op_class::SimdCvt                       0      0.00%     84.51% # Class of executed instruction
system.cpu0.op_class::SimdMisc                      0      0.00%     84.51% # Class of executed instruction
system.cpu0.op_class::SimdMult                      0      0.00%     84.51% # Class of executed instruction
system.cpu0.op_class::SimdMultAcc                   0      0.00%     84.51% # Class of executed instruction
system.cpu0.op_class::SimdShift                     0      0.00%     84.51% # Class of executed instruction
system.cpu0.op_class::SimdShiftAcc                  0      0.00%     84.51% # Class of executed instruction
system.cpu0.op_class::SimdSqrt                      0      0.00%     84.51% # Class of executed instruction
system.cpu0.op_class::SimdFloatAdd                  0      0.00%     84.51% # Class of executed instruction
system.cpu0.op_class::SimdFloatAlu                  0      0.00%     84.51% # Class of executed instruction
system.cpu0.op_class::SimdFloatCmp                  0      0.00%     84.51% # Class of executed instruction
system.cpu0.op_class::SimdFloatCvt                  0      0.00%     84.51% # Class of executed instruction
system.cpu0.op_class::SimdFloatDiv                  0      0.00%     84.51% # Class of executed instruction
system.cpu0.op_class::SimdFloatMisc                 0      0.00%     84.51% # Class of executed instruction
system.cpu0.op_class::SimdFloatMult                 0      0.00%     84.51% # Class of executed instruction
system.cpu0.op_class::SimdFloatMultAcc              0      0.00%     84.51% # Class of executed instruction
system.cpu0.op_class::SimdFloatSqrt                 0      0.00%     84.51% # Class of executed instruction
system.cpu0.op_class::MemRead                17554858      9.58%     94.10% # Class of executed instruction
system.cpu0.op_class::MemWrite               10813885      5.90%    100.00% # Class of executed instruction
system.cpu0.op_class::IprAccess                     0      0.00%    100.00% # Class of executed instruction
system.cpu0.op_class::InstPrefetch                  0      0.00%    100.00% # Class of executed instruction
system.cpu0.op_class::total                 183180768                       # Class of executed instruction
system.cpu1.apic_clk_domain.clock                8000                       # Clock period in ticks
system.cpu1.numCycles                       234096209                       # number of cpu cycles simulated
system.cpu1.numWorkItemsStarted                     0                       # number of work items this cpu started
system.cpu1.numWorkItemsCompleted                   0                       # number of work items this cpu completed
system.cpu1.committedInsts                    2877516                       # Number of instructions committed
system.cpu1.committedOps                      5753471                       # Number of ops (including micro ops) committed
system.cpu1.num_int_alu_accesses              4327355                       # Number of integer alu accesses
system.cpu1.num_fp_alu_accesses               2691675                       # Number of float alu accesses
system.cpu1.num_func_calls                      24751                       # number of times a function call or return occured
system.cpu1.num_conditional_control_insts       341144                       # number of instructions that are conditional controls
system.cpu1.num_int_insts                     4327355                       # number of integer instructions
system.cpu1.num_fp_insts                      2691675                       # number of float instructions
system.cpu1.num_int_register_reads            7670140                       # number of times the integer registers were read
system.cpu1.num_int_register_writes           2706596                       # number of times the integer registers were written
system.cpu1.num_fp_register_reads             4167185                       # number of times the floating registers were read
system.cpu1.num_fp_register_writes            2679320                       # number of times the floating registers were written
system.cpu1.num_cc_register_reads             2059260                       # number of times the CC registers were read
system.cpu1.num_cc_register_writes            2052982                       # number of times the CC registers were written
system.cpu1.num_mem_refs                      1330703                       # number of memory refs
system.cpu1.num_load_insts                    1305886                       # Number of load instructions
system.cpu1.num_store_insts                     24817                       # Number of store instructions
system.cpu1.num_idle_cycles              223089332.315124                       # Number of idle cycles
system.cpu1.num_busy_cycles              11006876.684876                       # Number of busy cycles
system.cpu1.not_idle_fraction                0.047019                       # Percentage of non-idle cycles
system.cpu1.idle_fraction                    0.952981                       # Percentage of idle cycles
system.cpu1.Branches                           379810                       # Number of branches fetched
system.cpu1.op_class::No_OpClass                    2      0.00%      0.00% # Class of executed instruction
system.cpu1.op_class::IntAlu                  2959576     51.44%     51.44% # Class of executed instruction
system.cpu1.op_class::IntMult                   37061      0.64%     52.08% # Class of executed instruction
system.cpu1.op_class::IntDiv                       14      0.00%     52.08% # Class of executed instruction
system.cpu1.op_class::FloatAdd                1426115     24.79%     76.87% # Class of executed instruction
system.cpu1.op_class::FloatCmp                      0      0.00%     76.87% # Class of executed instruction
system.cpu1.op_class::FloatCvt                      0      0.00%     76.87% # Class of executed instruction
system.cpu1.op_class::FloatMult                     0      0.00%     76.87% # Class of executed instruction
system.cpu1.op_class::FloatDiv                      0      0.00%     76.87% # Class of executed instruction
system.cpu1.op_class::FloatSqrt                     0      0.00%     76.87% # Class of executed instruction
system.cpu1.op_class::SimdAdd                       0      0.00%     76.87% # Class of executed instruction
system.cpu1.op_class::SimdAddAcc                    0      0.00%     76.87% # Class of executed instruction
system.cpu1.op_class::SimdAlu                       0      0.00%     76.87% # Class of executed instruction
system.cpu1.op_class::SimdCmp                       0      0.00%     76.87% # Class of executed instruction
system.cpu1.op_class::SimdCvt                       0      0.00%     76.87% # Class of executed instruction
system.cpu1.op_class::SimdMisc                      0      0.00%     76.87% # Class of executed instruction
system.cpu1.op_class::SimdMult                      0      0.00%     76.87% # Class of executed instruction
system.cpu1.op_class::SimdMultAcc                   0      0.00%     76.87% # Class of executed instruction
system.cpu1.op_class::SimdShift                     0      0.00%     76.87% # Class of executed instruction
system.cpu1.op_class::SimdShiftAcc                  0      0.00%     76.87% # Class of executed instruction
system.cpu1.op_class::SimdSqrt                      0      0.00%     76.87% # Class of executed instruction
system.cpu1.op_class::SimdFloatAdd                  0      0.00%     76.87% # Class of executed instruction
system.cpu1.op_class::SimdFloatAlu                  0      0.00%     76.87% # Class of executed instruction
system.cpu1.op_class::SimdFloatCmp                  0      0.00%     76.87% # Class of executed instruction
system.cpu1.op_class::SimdFloatCvt                  0      0.00%     76.87% # Class of executed instruction
system.cpu1.op_class::SimdFloatDiv                  0      0.00%     76.87% # Class of executed instruction
system.cpu1.op_class::SimdFloatMisc                 0      0.00%     76.87% # Class of executed instruction
system.cpu1.op_class::SimdFloatMult                 0      0.00%     76.87% # Class of executed instruction
system.cpu1.op_class::SimdFloatMultAcc              0      0.00%     76.87% # Class of executed instruction
system.cpu1.op_class::SimdFloatSqrt                 0      0.00%     76.87% # Class of executed instruction
system.cpu1.op_class::MemRead                 1305886     22.70%     99.57% # Class of executed instruction
system.cpu1.op_class::MemWrite                  24817      0.43%    100.00% # Class of executed instruction
system.cpu1.op_class::IprAccess                     0      0.00%    100.00% # Class of executed instruction
system.cpu1.op_class::InstPrefetch                  0      0.00%    100.00% # Class of executed instruction
system.cpu1.op_class::total                   5753471                       # Class of executed instruction
system.ruby.clk_domain.clock                      500                       # Clock period in ticks
system.ruby.delayHist::bucket_size                  1                       # delay histogram for all message
system.ruby.delayHist::max_bucket                   9                       # delay histogram for all message
system.ruby.delayHist::samples                 680765                       # delay histogram for all message
system.ruby.delayHist::mean                  0.737594                       # delay histogram for all message
system.ruby.delayHist::stdev                 2.312978                       # delay histogram for all message
system.ruby.delayHist                    |      617868     90.76%     90.76% |           0      0.00%     90.76% |          32      0.00%     90.77% |           0      0.00%     90.77% |           1      0.00%     90.77% |         284      0.04%     90.81% |           0      0.00%     90.81% |           0      0.00%     90.81% |       62580      9.19%    100.00% |           0      0.00%    100.00% # delay histogram for all message
system.ruby.delayHist::total                   680765                       # delay histogram for all message
system.ruby.outstanding_req_hist::bucket_size            1                      
system.ruby.outstanding_req_hist::max_bucket            9                      
system.ruby.outstanding_req_hist::samples    117760338                      
system.ruby.outstanding_req_hist::mean       1.000118                      
system.ruby.outstanding_req_hist::gmean      1.000082                      
system.ruby.outstanding_req_hist::stdev      0.010877                      
system.ruby.outstanding_req_hist         |           0      0.00%      0.00% |   117746405     99.99%     99.99% |       13933      0.01%    100.00% |           0      0.00%    100.00% |           0      0.00%    100.00% |           0      0.00%    100.00% |           0      0.00%    100.00% |           0      0.00%    100.00% |           0      0.00%    100.00% |           0      0.00%    100.00%
system.ruby.outstanding_req_hist::total     117760338                      
system.ruby.latency_hist::bucket_size             128                      
system.ruby.latency_hist::max_bucket             1279                      
system.ruby.latency_hist::samples           117760338                      
system.ruby.latency_hist::mean               1.083417                      
system.ruby.latency_hist::gmean              1.004161                      
system.ruby.latency_hist::stdev              3.850183                      
system.ruby.latency_hist                 |   117744809     99.99%     99.99% |       13071      0.01%    100.00% |          75      0.00%    100.00% |         659      0.00%    100.00% |        1507      0.00%    100.00% |         217      0.00%    100.00% |           0      0.00%    100.00% |           0      0.00%    100.00% |           0      0.00%    100.00% |           0      0.00%    100.00%
system.ruby.latency_hist::total             117760338                      
system.ruby.hit_latency_hist::bucket_size          128                      
system.ruby.hit_latency_hist::max_bucket         1279                      
system.ruby.hit_latency_hist::samples       117760338                      
system.ruby.hit_latency_hist::mean           1.083417                      
system.ruby.hit_latency_hist::gmean          1.004161                      
system.ruby.hit_latency_hist::stdev          3.850183                      
system.ruby.hit_latency_hist             |   117744809     99.99%     99.99% |       13071      0.01%    100.00% |          75      0.00%    100.00% |         659      0.00%    100.00% |        1507      0.00%    100.00% |         217      0.00%    100.00% |           0      0.00%    100.00% |           0      0.00%    100.00% |           0      0.00%    100.00% |           0      0.00%    100.00%
system.ruby.hit_latency_hist::total         117760338                      
system.ruby.l0_cntrl0.Dcache.demand_hits     28306415                       # Number of cache demand hits
system.ruby.l0_cntrl0.Dcache.demand_misses        62392                       # Number of cache demand misses
system.ruby.l0_cntrl0.Dcache.demand_accesses     28368807                       # Number of cache demand accesses
system.ruby.l0_cntrl0.Icache.demand_hits     84378524                       # Number of cache demand hits
system.ruby.l0_cntrl0.Icache.demand_misses         1887                       # Number of cache demand misses
system.ruby.l0_cntrl0.Icache.demand_accesses     84380411                       # Number of cache demand accesses
system.ruby.l0_cntrl0.Zcache.demand_hits      5045976                       # Number of cache demand hits
system.ruby.l0_cntrl0.Zcache.demand_misses        61541                       # Number of cache demand misses
system.ruby.l0_cntrl0.Zcache.demand_accesses      5107517                       # Number of cache demand accesses
system.ruby.l0_cntrl1.Dcache.demand_hits      1264734                       # Number of cache demand hits
system.ruby.l0_cntrl1.Dcache.demand_misses        79838                       # Number of cache demand misses
system.ruby.l0_cntrl1.Dcache.demand_accesses      1344572                       # Number of cache demand accesses
system.ruby.l0_cntrl1.Icache.demand_hits      3666449                       # Number of cache demand hits
system.ruby.l0_cntrl1.Icache.demand_misses           99                       # Number of cache demand misses
system.ruby.l0_cntrl1.Icache.demand_accesses      3666548                       # Number of cache demand accesses
system.ruby.l0_cntrl1.Zcache.demand_hits        27568                       # Number of cache demand hits
system.ruby.l0_cntrl1.Zcache.demand_misses          913                       # Number of cache demand misses
system.ruby.l0_cntrl1.Zcache.demand_accesses        28481                       # Number of cache demand accesses
system.ruby.l1_cntrl0.cache.demand_hits           673                       # Number of cache demand hits
system.ruby.l1_cntrl0.cache.demand_misses        63606                       # Number of cache demand misses
system.ruby.l1_cntrl0.cache.demand_accesses        64279                       # Number of cache demand accesses
system.ruby.l1_cntrl0.zcache.demand_hits            6                       # Number of cache demand hits
system.ruby.l1_cntrl0.zcache.demand_misses          650                       # Number of cache demand misses
system.ruby.l1_cntrl0.zcache.demand_accesses          656                       # Number of cache demand accesses
system.ruby.l1_cntrl1.cache.demand_hits         46998                       # Number of cache demand hits
system.ruby.l1_cntrl1.cache.demand_misses        32939                       # Number of cache demand misses
system.ruby.l1_cntrl1.cache.demand_accesses        79937                       # Number of cache demand accesses
system.ruby.l1_cntrl1.zcache.demand_hits           69                       # Number of cache demand hits
system.ruby.l1_cntrl1.zcache.demand_misses           66                       # Number of cache demand misses
system.ruby.l1_cntrl1.zcache.demand_accesses          135                       # Number of cache demand accesses
system.ruby.l2_cntrl0.L2cache.demand_hits        29060                       # Number of cache demand hits
system.ruby.l2_cntrl0.L2cache.demand_misses        67485                       # Number of cache demand misses
system.ruby.l2_cntrl0.L2cache.demand_accesses        96545                       # Number of cache demand accesses
system.ruby.l2_cntrl0.ZL2cache.demand_hits            0                       # Number of cache demand hits
system.ruby.l2_cntrl0.ZL2cache.demand_misses           66                       # Number of cache demand misses
system.ruby.l2_cntrl0.ZL2cache.demand_accesses           66                       # Number of cache demand accesses
system.ruby.memctrl_clk_domain.clock             1500                       # Clock period in ticks
system.ruby.network.routers0.percent_links_utilized            0                      
system.ruby.network.routers1.percent_links_utilized            0                      
system.ruby.network.routers2.percent_links_utilized     0.144071                      
system.ruby.network.routers2.msg_count.Control::0        63606                      
system.ruby.network.routers2.msg_count.Request_Control::2         3786                      
system.ruby.network.routers2.msg_count.Response_Data::1        71156                      
system.ruby.network.routers2.msg_count.Response_Control::1        58253                      
system.ruby.network.routers2.msg_count.Response_Control::2        63606                      
system.ruby.network.routers2.msg_count.Writeback_Data::0        57800                      
system.ruby.network.routers2.msg_count.Writeback_Control::0          418                      
system.ruby.network.routers2.msg_bytes.Control::0       508848                      
system.ruby.network.routers2.msg_bytes.Request_Control::2        30288                      
system.ruby.network.routers2.msg_bytes.Response_Data::1      5123232                      
system.ruby.network.routers2.msg_bytes.Response_Control::1       466024                      
system.ruby.network.routers2.msg_bytes.Response_Control::2       508848                      
system.ruby.network.routers2.msg_bytes.Writeback_Data::0      4161600                      
system.ruby.network.routers2.msg_bytes.Writeback_Control::0         3344                      
system.ruby.network.routers3.percent_links_utilized     0.045641                      
system.ruby.network.routers3.msg_count.Control::0        32939                      
system.ruby.network.routers3.msg_count.Request_Control::2           25                      
system.ruby.network.routers3.msg_count.Response_Data::1        32954                      
system.ruby.network.routers3.msg_count.Response_Control::1        28702                      
system.ruby.network.routers3.msg_count.Response_Control::2        32912                      
system.ruby.network.routers3.msg_count.Writeback_Data::0          989                      
system.ruby.network.routers3.msg_count.Writeback_Control::0        27692                      
system.ruby.network.routers3.msg_bytes.Control::0       263512                      
system.ruby.network.routers3.msg_bytes.Request_Control::2          200                      
system.ruby.network.routers3.msg_bytes.Response_Data::1      2372688                      
system.ruby.network.routers3.msg_bytes.Response_Control::1       229616                      
system.ruby.network.routers3.msg_bytes.Response_Control::2       263296                      
system.ruby.network.routers3.msg_bytes.Writeback_Data::0        71208                      
system.ruby.network.routers3.msg_bytes.Writeback_Control::0       221536                      
system.ruby.network.routers4.percent_links_utilized     0.250384                      
system.ruby.network.routers4.msg_count.Control::0       160238                      
system.ruby.network.routers4.msg_count.Request_Control::2         3811                      
system.ruby.network.routers4.msg_count.Response_Data::1       160219                      
system.ruby.network.routers4.msg_count.Response_Control::1        86917                      
system.ruby.network.routers4.msg_count.Response_Control::2        96518                      
system.ruby.network.routers4.msg_count.Writeback_Data::0        58789                      
system.ruby.network.routers4.msg_count.Writeback_Control::0        28110                      
system.ruby.network.routers4.msg_bytes.Control::0      1281904                      
system.ruby.network.routers4.msg_bytes.Request_Control::2        30488                      
system.ruby.network.routers4.msg_bytes.Response_Data::1     11535768                      
system.ruby.network.routers4.msg_bytes.Response_Control::1       695336                      
system.ruby.network.routers4.msg_bytes.Response_Control::2       772144                      
system.ruby.network.routers4.msg_bytes.Writeback_Data::0      4232808                      
system.ruby.network.routers4.msg_bytes.Writeback_Control::0       224880                      
system.ruby.network.routers5.percent_links_utilized     0.067959                      
system.ruby.network.routers5.msg_count.Control::0        63693                      
system.ruby.network.routers5.msg_count.Response_Data::1        63693                      
system.ruby.network.routers5.msg_bytes.Control::0       509544                      
system.ruby.network.routers5.msg_bytes.Response_Data::1      4585896                      
system.ruby.network.routers6.percent_links_utilized     0.084676                      
system.ruby.network.routers6.msg_count.Control::0       160238                      
system.ruby.network.routers6.msg_count.Request_Control::2         3811                      
system.ruby.network.routers6.msg_count.Response_Data::1       164011                      
system.ruby.network.routers6.msg_count.Response_Control::1        86936                      
system.ruby.network.routers6.msg_count.Response_Control::2        96518                      
system.ruby.network.routers6.msg_count.Writeback_Data::0        58789                      
system.ruby.network.routers6.msg_count.Writeback_Control::0        28110                      
system.ruby.network.routers6.msg_bytes.Control::0      1281904                      
system.ruby.network.routers6.msg_bytes.Request_Control::2        30488                      
system.ruby.network.routers6.msg_bytes.Response_Data::1     11808792                      
system.ruby.network.routers6.msg_bytes.Response_Control::1       695488                      
system.ruby.network.routers6.msg_bytes.Response_Control::2       772144                      
system.ruby.network.routers6.msg_bytes.Writeback_Data::0      4232808                      
system.ruby.network.routers6.msg_bytes.Writeback_Control::0       224880                      
system.ruby.network.msg_count.Control          480714                      
system.ruby.network.msg_count.Request_Control        11433                      
system.ruby.network.msg_count.Response_Data       492033                      
system.ruby.network.msg_count.Response_Control       550362                      
system.ruby.network.msg_count.Writeback_Data       176367                      
system.ruby.network.msg_count.Writeback_Control        84330                      
system.ruby.network.msg_byte.Control          3845712                      
system.ruby.network.msg_byte.Request_Control        91464                      
system.ruby.network.msg_byte.Response_Data     35426376                      
system.ruby.network.msg_byte.Response_Control      4402896                      
system.ruby.network.msg_byte.Writeback_Data     12698424                      
system.ruby.network.msg_byte.Writeback_Control       674640                      
system.ruby.network.routers0.throttle0.link_utilization            0                      
system.ruby.network.routers0.throttle1.link_utilization            0                      
system.ruby.network.routers1.throttle0.link_utilization            0                      
system.ruby.network.routers1.throttle1.link_utilization            0                      
system.ruby.network.routers2.throttle0.link_utilization     0.135366                      
system.ruby.network.routers2.throttle0.msg_count.Request_Control::2         3786                      
system.ruby.network.routers2.throttle0.msg_count.Response_Data::1        63590                      
system.ruby.network.routers2.throttle0.msg_count.Response_Control::1        58250                      
system.ruby.network.routers2.throttle0.msg_bytes.Request_Control::2        30288                      
system.ruby.network.routers2.throttle0.msg_bytes.Response_Data::1      4578480                      
system.ruby.network.routers2.throttle0.msg_bytes.Response_Control::1       466000                      
system.ruby.network.routers2.throttle1.link_utilization     0.152775                      
system.ruby.network.routers2.throttle1.msg_count.Control::0        63606                      
system.ruby.network.routers2.throttle1.msg_count.Response_Data::1         7566                      
system.ruby.network.routers2.throttle1.msg_count.Response_Control::1            3                      
system.ruby.network.routers2.throttle1.msg_count.Response_Control::2        63606                      
system.ruby.network.routers2.throttle1.msg_count.Writeback_Data::0        57800                      
system.ruby.network.routers2.throttle1.msg_count.Writeback_Control::0          418                      
system.ruby.network.routers2.throttle1.msg_bytes.Control::0       508848                      
system.ruby.network.routers2.throttle1.msg_bytes.Response_Data::1       544752                      
system.ruby.network.routers2.throttle1.msg_bytes.Response_Control::1           24                      
system.ruby.network.routers2.throttle1.msg_bytes.Response_Control::2       508848                      
system.ruby.network.routers2.throttle1.msg_bytes.Writeback_Data::0      4161600                      
system.ruby.network.routers2.throttle1.msg_bytes.Writeback_Control::0         3344                      
system.ruby.network.routers3.throttle0.link_utilization     0.069384                      
system.ruby.network.routers3.throttle0.msg_count.Request_Control::2           25                      
system.ruby.network.routers3.throttle0.msg_count.Response_Data::1        32937                      
system.ruby.network.routers3.throttle0.msg_count.Response_Control::1        28686                      
system.ruby.network.routers3.throttle0.msg_bytes.Request_Control::2          200                      
system.ruby.network.routers3.throttle0.msg_bytes.Response_Data::1      2371464                      
system.ruby.network.routers3.throttle0.msg_bytes.Response_Control::1       229488                      
system.ruby.network.routers3.throttle1.link_utilization     0.021897                      
system.ruby.network.routers3.throttle1.msg_count.Control::0        32939                      
system.ruby.network.routers3.throttle1.msg_count.Response_Data::1           17                      
system.ruby.network.routers3.throttle1.msg_count.Response_Control::1           16                      
system.ruby.network.routers3.throttle1.msg_count.Response_Control::2        32912                      
system.ruby.network.routers3.throttle1.msg_count.Writeback_Data::0          989                      
system.ruby.network.routers3.throttle1.msg_count.Writeback_Control::0        27692                      
system.ruby.network.routers3.throttle1.msg_bytes.Control::0       263512                      
system.ruby.network.routers3.throttle1.msg_bytes.Response_Data::1         1224                      
system.ruby.network.routers3.throttle1.msg_bytes.Response_Control::1          128                      
system.ruby.network.routers3.throttle1.msg_bytes.Response_Control::2       263296                      
system.ruby.network.routers3.throttle1.msg_bytes.Writeback_Data::0        71208                      
system.ruby.network.routers3.throttle1.msg_bytes.Writeback_Control::0       221536                      
system.ruby.network.routers4.throttle0.link_utilization     0.289712                      
system.ruby.network.routers4.throttle0.msg_count.Control::0        96545                      
system.ruby.network.routers4.throttle0.msg_count.Response_Data::1        67484                      
system.ruby.network.routers4.throttle0.msg_count.Response_Control::2        96518                      
system.ruby.network.routers4.throttle0.msg_count.Writeback_Data::0        58789                      
system.ruby.network.routers4.throttle0.msg_count.Writeback_Control::0        28110                      
system.ruby.network.routers4.throttle0.msg_bytes.Control::0       772360                      
system.ruby.network.routers4.throttle0.msg_bytes.Response_Data::1      4858848                      
system.ruby.network.routers4.throttle0.msg_bytes.Response_Control::2       772144                      
system.ruby.network.routers4.throttle0.msg_bytes.Writeback_Data::0      4232808                      
system.ruby.network.routers4.throttle0.msg_bytes.Writeback_Control::0       224880                      
system.ruby.network.routers4.throttle1.link_utilization     0.211056                      
system.ruby.network.routers4.throttle1.msg_count.Control::0        63693                      
system.ruby.network.routers4.throttle1.msg_count.Request_Control::2         3811                      
system.ruby.network.routers4.throttle1.msg_count.Response_Data::1        92735                      
system.ruby.network.routers4.throttle1.msg_count.Response_Control::1        86917                      
system.ruby.network.routers4.throttle1.msg_bytes.Control::0       509544                      
system.ruby.network.routers4.throttle1.msg_bytes.Request_Control::2        30488                      
system.ruby.network.routers4.throttle1.msg_bytes.Response_Data::1      6676920                      
system.ruby.network.routers4.throttle1.msg_bytes.Response_Control::1       695336                      
system.ruby.network.routers5.throttle0.link_utilization     0.013592                      
system.ruby.network.routers5.throttle0.msg_count.Control::0        63693                      
system.ruby.network.routers5.throttle0.msg_bytes.Control::0       509544                      
system.ruby.network.routers5.throttle1.link_utilization     0.122326                      
system.ruby.network.routers5.throttle1.msg_count.Response_Data::1        63693                      
system.ruby.network.routers5.throttle1.msg_bytes.Response_Data::1      4585896                      
system.ruby.network.routers6.throttle0.link_utilization            0                      
system.ruby.network.routers6.throttle1.link_utilization            0                      
system.ruby.network.routers6.throttle2.link_utilization     0.135366                      
system.ruby.network.routers6.throttle2.msg_count.Request_Control::2         3786                      
system.ruby.network.routers6.throttle2.msg_count.Response_Data::1        63590                      
system.ruby.network.routers6.throttle2.msg_count.Response_Control::1        58250                      
system.ruby.network.routers6.throttle2.msg_bytes.Request_Control::2        30288                      
system.ruby.network.routers6.throttle2.msg_bytes.Response_Data::1      4578480                      
system.ruby.network.routers6.throttle2.msg_bytes.Response_Control::1       466000                      
system.ruby.network.routers6.throttle3.link_utilization     0.069384                      
system.ruby.network.routers6.throttle3.msg_count.Request_Control::2           25                      
system.ruby.network.routers6.throttle3.msg_count.Response_Data::1        32937                      
system.ruby.network.routers6.throttle3.msg_count.Response_Control::1        28686                      
system.ruby.network.routers6.throttle3.msg_bytes.Request_Control::2          200                      
system.ruby.network.routers6.throttle3.msg_bytes.Response_Data::1      2371464                      
system.ruby.network.routers6.throttle3.msg_bytes.Response_Control::1       229488                      
system.ruby.network.routers6.throttle4.link_utilization     0.289712                      
system.ruby.network.routers6.throttle4.msg_count.Control::0        96545                      
system.ruby.network.routers6.throttle4.msg_count.Response_Data::1        67484                      
system.ruby.network.routers6.throttle4.msg_count.Response_Control::2        96518                      
system.ruby.network.routers6.throttle4.msg_count.Writeback_Data::0        58789                      
system.ruby.network.routers6.throttle4.msg_count.Writeback_Control::0        28110                      
system.ruby.network.routers6.throttle4.msg_bytes.Control::0       772360                      
system.ruby.network.routers6.throttle4.msg_bytes.Response_Data::1      4858848                      
system.ruby.network.routers6.throttle4.msg_bytes.Response_Control::2       772144                      
system.ruby.network.routers6.throttle4.msg_bytes.Writeback_Data::0      4232808                      
system.ruby.network.routers6.throttle4.msg_bytes.Writeback_Control::0       224880                      
system.ruby.network.routers6.throttle5.link_utilization     0.013592                      
system.ruby.network.routers6.throttle5.msg_count.Control::0        63693                      
system.ruby.network.routers6.throttle5.msg_bytes.Control::0       509544                      
system.ruby.delayVCHist.vnet_0::bucket_size            1                       # delay histogram for vnet_0
system.ruby.delayVCHist.vnet_0::max_bucket            9                       # delay histogram for vnet_0
system.ruby.delayVCHist.vnet_0::samples        279962                       # delay histogram for vnet_0
system.ruby.delayVCHist.vnet_0::mean         1.680157                       # delay histogram for vnet_0
system.ruby.delayVCHist.vnet_0::stdev        3.258364                       # delay histogram for vnet_0
system.ruby.delayVCHist.vnet_0           |      221140     78.99%     78.99% |           0      0.00%     78.99% |          32      0.01%     79.00% |           0      0.00%     79.00% |           1      0.00%     79.00% |           0      0.00%     79.00% |           0      0.00%     79.00% |           0      0.00%     79.00% |       58789     21.00%    100.00% |           0      0.00%    100.00% # delay histogram for vnet_0
system.ruby.delayVCHist.vnet_0::total          279962                       # delay histogram for vnet_0
system.ruby.delayVCHist.vnet_1::bucket_size            1                       # delay histogram for vnet_1
system.ruby.delayVCHist.vnet_1::max_bucket            9                       # delay histogram for vnet_1
system.ruby.delayVCHist.vnet_1::samples        395163                       # delay histogram for vnet_1
system.ruby.delayVCHist.vnet_1::mean         0.076748                       # delay histogram for vnet_1
system.ruby.delayVCHist.vnet_1::stdev        0.779805                       # delay histogram for vnet_1
system.ruby.delayVCHist.vnet_1           |      391372     99.04%     99.04% |           0      0.00%     99.04% |           0      0.00%     99.04% |           0      0.00%     99.04% |           0      0.00%     99.04% |           0      0.00%     99.04% |           0      0.00%     99.04% |           0      0.00%     99.04% |        3791      0.96%    100.00% |           0      0.00%    100.00% # delay histogram for vnet_1
system.ruby.delayVCHist.vnet_1::total          395163                       # delay histogram for vnet_1
system.ruby.delayVCHist.vnet_2::bucket_size            1                       # delay histogram for vnet_2
system.ruby.delayVCHist.vnet_2::max_bucket            9                       # delay histogram for vnet_2
system.ruby.delayVCHist.vnet_2::samples          5640                       # delay histogram for vnet_2
system.ruby.delayVCHist.vnet_2::mean         0.251773                       # delay histogram for vnet_2
system.ruby.delayVCHist.vnet_2::stdev        1.093475                       # delay histogram for vnet_2
system.ruby.delayVCHist.vnet_2           |        5356     94.96%     94.96% |           0      0.00%     94.96% |           0      0.00%     94.96% |           0      0.00%     94.96% |           0      0.00%     94.96% |         284      5.04%    100.00% |           0      0.00%    100.00% |           0      0.00%    100.00% |           0      0.00%    100.00% |           0      0.00%    100.00% # delay histogram for vnet_2
system.ruby.delayVCHist.vnet_2::total            5640                       # delay histogram for vnet_2
system.ruby.LD.latency_hist::bucket_size          128                      
system.ruby.LD.latency_hist::max_bucket          1279                      
system.ruby.LD.latency_hist::samples         16828968                      
system.ruby.LD.latency_hist::mean            1.053506                      
system.ruby.LD.latency_hist::gmean           1.010572                      
system.ruby.LD.latency_hist::stdev           1.085263                      
system.ruby.LD.latency_hist              |    16828859    100.00%    100.00% |         108      0.00%    100.00% |           0      0.00%    100.00% |           0      0.00%    100.00% |           0      0.00%    100.00% |           1      0.00%    100.00% |           0      0.00%    100.00% |           0      0.00%    100.00% |           0      0.00%    100.00% |           0      0.00%    100.00%
system.ruby.LD.latency_hist::total           16828968                      
system.ruby.LD.hit_latency_hist::bucket_size          128                      
system.ruby.LD.hit_latency_hist::max_bucket         1279                      
system.ruby.LD.hit_latency_hist::samples     16828968                      
system.ruby.LD.hit_latency_hist::mean        1.053506                      
system.ruby.LD.hit_latency_hist::gmean       1.010572                      
system.ruby.LD.hit_latency_hist::stdev       1.085263                      
system.ruby.LD.hit_latency_hist          |    16828859    100.00%    100.00% |         108      0.00%    100.00% |           0      0.00%    100.00% |           0      0.00%    100.00% |           0      0.00%    100.00% |           1      0.00%    100.00% |           0      0.00%    100.00% |           0      0.00%    100.00% |           0      0.00%    100.00% |           0      0.00%    100.00%
system.ruby.LD.hit_latency_hist::total       16828968                      
system.ruby.ST.latency_hist::bucket_size          128                      
system.ruby.ST.latency_hist::max_bucket          1279                      
system.ruby.ST.latency_hist::samples          8793398                      
system.ruby.ST.latency_hist::mean            1.995969                      
system.ruby.ST.latency_hist::gmean           1.035195                      
system.ruby.ST.latency_hist::stdev          13.880505                      
system.ruby.ST.latency_hist              |     8778246     99.83%     99.83% |       12712      0.14%     99.97% |          73      0.00%     99.97% |         658      0.01%     99.98% |        1498      0.02%    100.00% |         211      0.00%    100.00% |           0      0.00%    100.00% |           0      0.00%    100.00% |           0      0.00%    100.00% |           0      0.00%    100.00%
system.ruby.ST.latency_hist::total            8793398                      
system.ruby.ST.hit_latency_hist::bucket_size          128                      
system.ruby.ST.hit_latency_hist::max_bucket         1279                      
system.ruby.ST.hit_latency_hist::samples      8793398                      
system.ruby.ST.hit_latency_hist::mean        1.995969                      
system.ruby.ST.hit_latency_hist::gmean       1.035195                      
system.ruby.ST.hit_latency_hist::stdev      13.880505                      
system.ruby.ST.hit_latency_hist          |     8778246     99.83%     99.83% |       12712      0.14%     99.97% |          73      0.00%     99.97% |         658      0.01%     99.98% |        1498      0.02%    100.00% |         211      0.00%    100.00% |           0      0.00%    100.00% |           0      0.00%    100.00% |           0      0.00%    100.00% |           0      0.00%    100.00%
system.ruby.ST.hit_latency_hist::total        8793398                      
system.ruby.IFETCH.latency_hist::bucket_size          128                      
system.ruby.IFETCH.latency_hist::max_bucket         1279                      
system.ruby.IFETCH.latency_hist::samples     88046959                      
system.ruby.IFETCH.latency_hist::mean        1.001865                      
system.ruby.IFETCH.latency_hist::gmean       1.000088                      
system.ruby.IFETCH.latency_hist::stdev       0.518040                      
system.ruby.IFETCH.latency_hist          |    88046693    100.00%    100.00% |         249      0.00%    100.00% |           2      0.00%    100.00% |           1      0.00%    100.00% |           9      0.00%    100.00% |           5      0.00%    100.00% |           0      0.00%    100.00% |           0      0.00%    100.00% |           0      0.00%    100.00% |           0      0.00%    100.00%
system.ruby.IFETCH.latency_hist::total       88046959                      
system.ruby.IFETCH.hit_latency_hist::bucket_size          128                      
system.ruby.IFETCH.hit_latency_hist::max_bucket         1279                      
system.ruby.IFETCH.hit_latency_hist::samples     88046959                      
system.ruby.IFETCH.hit_latency_hist::mean     1.001865                      
system.ruby.IFETCH.hit_latency_hist::gmean     1.000088                      
system.ruby.IFETCH.hit_latency_hist::stdev     0.518040                      
system.ruby.IFETCH.hit_latency_hist      |    88046693    100.00%    100.00% |         249      0.00%    100.00% |           2      0.00%    100.00% |           1      0.00%    100.00% |           9      0.00%    100.00% |           5      0.00%    100.00% |           0      0.00%    100.00% |           0      0.00%    100.00% |           0      0.00%    100.00% |           0      0.00%    100.00%
system.ruby.IFETCH.hit_latency_hist::total     88046959                      
system.ruby.RMW_Read.latency_hist::bucket_size            4                      
system.ruby.RMW_Read.latency_hist::max_bucket           39                      
system.ruby.RMW_Read.latency_hist::samples          395                      
system.ruby.RMW_Read.latency_hist::mean      1.518987                      
system.ruby.RMW_Read.latency_hist::gmean     1.068371                      
system.ruby.RMW_Read.latency_hist::stdev     3.677551                      
system.ruby.RMW_Read.latency_hist        |         387     97.97%     97.97% |           0      0.00%     97.97% |           0      0.00%     97.97% |           0      0.00%     97.97% |           0      0.00%     97.97% |           3      0.76%     98.73% |           0      0.00%     98.73% |           3      0.76%     99.49% |           2      0.51%    100.00% |           0      0.00%    100.00%
system.ruby.RMW_Read.latency_hist::total          395                      
system.ruby.RMW_Read.hit_latency_hist::bucket_size            4                      
system.ruby.RMW_Read.hit_latency_hist::max_bucket           39                      
system.ruby.RMW_Read.hit_latency_hist::samples          395                      
system.ruby.RMW_Read.hit_latency_hist::mean     1.518987                      
system.ruby.RMW_Read.hit_latency_hist::gmean     1.068371                      
system.ruby.RMW_Read.hit_latency_hist::stdev     3.677551                      
system.ruby.RMW_Read.hit_latency_hist    |         387     97.97%     97.97% |           0      0.00%     97.97% |           0      0.00%     97.97% |           0      0.00%     97.97% |           0      0.00%     97.97% |           3      0.76%     98.73% |           0      0.00%     98.73% |           3      0.76%     99.49% |           2      0.51%    100.00% |           0      0.00%    100.00%
system.ruby.RMW_Read.hit_latency_hist::total          395                      
system.ruby.Locked_RMW_Read.latency_hist::bucket_size           32                      
system.ruby.Locked_RMW_Read.latency_hist::max_bucket          319                      
system.ruby.Locked_RMW_Read.latency_hist::samples      2045309                      
system.ruby.Locked_RMW_Read.latency_hist::mean     1.000213                      
system.ruby.Locked_RMW_Read.latency_hist::gmean     1.000014                      
system.ruby.Locked_RMW_Read.latency_hist::stdev     0.158259                      
system.ruby.Locked_RMW_Read.latency_hist |     2045307    100.00%    100.00% |           0      0.00%    100.00% |           0      0.00%    100.00% |           0      0.00%    100.00% |           1      0.00%    100.00% |           1      0.00%    100.00% |           0      0.00%    100.00% |           0      0.00%    100.00% |           0      0.00%    100.00% |           0      0.00%    100.00%
system.ruby.Locked_RMW_Read.latency_hist::total      2045309                      
system.ruby.Locked_RMW_Read.hit_latency_hist::bucket_size           32                      
system.ruby.Locked_RMW_Read.hit_latency_hist::max_bucket          319                      
system.ruby.Locked_RMW_Read.hit_latency_hist::samples      2045309                      
system.ruby.Locked_RMW_Read.hit_latency_hist::mean     1.000213                      
system.ruby.Locked_RMW_Read.hit_latency_hist::gmean     1.000014                      
system.ruby.Locked_RMW_Read.hit_latency_hist::stdev     0.158259                      
[...]
system.ruby.Directory_Controller.IM.Memory_Data        63693      0.00%      0.00%
system.ruby.L0Cache_Controller.Load      |    15509220     92.16%     92.16% |     1319748      7.84%    100.00%
system.ruby.L0Cache_Controller.Load::total     16828968                      
system.ruby.L0Cache_Controller.Ifetch    |    84380411     95.84%     95.84% |     3666548      4.16%    100.00%
system.ruby.L0Cache_Controller.Ifetch::total     88046959                      
system.ruby.L0Cache_Controller.Store     |    12859587     99.81%     99.81% |       24824      0.19%    100.00%
system.ruby.L0Cache_Controller.Store::total     12884411                      
system.ruby.L0Cache_Controller.Inv       |        1212     66.27%     66.27% |         617     33.73%    100.00%
system.ruby.L0Cache_Controller.Inv::total         1829                      
system.ruby.L0Cache_Controller.L0_Replacement |       62203     44.11%     44.11% |       78824     55.89%    100.00%
system.ruby.L0Cache_Controller.L0_Replacement::total       141027                      
system.ruby.L0Cache_Controller.Data      |          25      0.64%      0.64% |        3899     99.36%    100.00%
system.ruby.L0Cache_Controller.Data::total         3924                      
system.ruby.L0Cache_Controller.Data_Exclusive |       64254     45.80%     45.80% |       76038     54.20%    100.00%
system.ruby.L0Cache_Controller.Data_Exclusive::total       140292                      
system.ruby.L0Cache_Controller.NP.Load   |         784      0.98%      0.98% |       79048     99.02%    100.00%
system.ruby.L0Cache_Controller.NP.Load::total        79832                      
system.ruby.L0Cache_Controller.NP.Ifetch |        1887     95.02%     95.02% |          99      4.98%    100.00%
system.ruby.L0Cache_Controller.NP.Ifetch::total         1986                      
system.ruby.L0Cache_Controller.NP.Store  |       61592     98.74%     98.74% |         789      1.26%    100.00%
system.ruby.L0Cache_Controller.NP.Store::total        62381                      
system.ruby.L0Cache_Controller.NP.Inv    |           0      0.00%      0.00% |          78    100.00%    100.00%
system.ruby.L0Cache_Controller.NP.Inv::total           78                      
system.ruby.L0Cache_Controller.S.Load    |      612147     88.67%     88.67% |       78244     11.33%    100.00%
system.ruby.L0Cache_Controller.S.Load::total       690391                      
system.ruby.L0Cache_Controller.S.Ifetch  |          22     13.33%     13.33% |         143     86.67%    100.00%
system.ruby.L0Cache_Controller.S.Ifetch::total          165                      
system.ruby.L0Cache_Controller.S.Store   |          16     94.12%     94.12% |           1      5.88%    100.00%
system.ruby.L0Cache_Controller.S.Store::total           17                      
system.ruby.L0Cache_Controller.S.Inv     |           1      4.17%      4.17% |          23     95.83%    100.00%
system.ruby.L0Cache_Controller.S.Inv::total           24                      
system.ruby.L0Cache_Controller.S.L0_Replacement |           6      0.18%      0.18% |        3374     99.82%    100.00%
system.ruby.L0Cache_Controller.S.L0_Replacement::total         3380                      
system.ruby.L0Cache_Controller.E.Load    |     2052815     64.09%     64.09% |     1150043     35.91%    100.00%
system.ruby.L0Cache_Controller.E.Load::total      3202858                      
system.ruby.L0Cache_Controller.E.Ifetch  |    84378502     95.84%     95.84% |     3666306      4.16%    100.00%
system.ruby.L0Cache_Controller.E.Ifetch::total     88044808                      
system.ruby.L0Cache_Controller.E.Store   |         393     92.69%     92.69% |          31      7.31%    100.00%
system.ruby.L0Cache_Controller.E.Store::total          424                      
system.ruby.L0Cache_Controller.E.Inv     |         830     78.38%     78.38% |         229     21.62%    100.00%
system.ruby.L0Cache_Controller.E.Inv::total         1059                      
system.ruby.L0Cache_Controller.E.L0_Replacement |         927      1.22%      1.22% |       74951     98.78%    100.00%
system.ruby.L0Cache_Controller.E.L0_Replacement::total        75878                      
system.ruby.L0Cache_Controller.M.Load    |    12843474     99.90%     99.90% |       12413      0.10%    100.00%
system.ruby.L0Cache_Controller.M.Load::total     12855887                      
system.ruby.L0Cache_Controller.M.Store   |    12797586     99.81%     99.81% |       24003      0.19%    100.00%
system.ruby.L0Cache_Controller.M.Store::total     12821589                      
system.ruby.L0Cache_Controller.M.Inv     |         381     57.04%     57.04% |         287     42.96%    100.00%
system.ruby.L0Cache_Controller.M.Inv::total          668                      
system.ruby.L0Cache_Controller.M.L0_Replacement |       61270     99.19%     99.19% |         499      0.81%    100.00%
system.ruby.L0Cache_Controller.M.L0_Replacement::total        61769                      
system.ruby.L0Cache_Controller.IS.Data   |          25      0.64%      0.64% |        3899     99.36%    100.00%
system.ruby.L0Cache_Controller.IS.Data::total         3924                      
system.ruby.L0Cache_Controller.IS.Data_Exclusive |        2646      3.40%      3.40% |       75248     96.60%    100.00%
system.ruby.L0Cache_Controller.IS.Data_Exclusive::total        77894                      
system.ruby.L0Cache_Controller.IM.Data_Exclusive |       61592     98.74%     98.74% |         789      1.26%    100.00%
system.ruby.L0Cache_Controller.IM.Data_Exclusive::total        62381                      
system.ruby.L0Cache_Controller.SM.Data_Exclusive |          16     94.12%     94.12% |           1      5.88%    100.00%
system.ruby.L0Cache_Controller.SM.Data_Exclusive::total           17                      
system.ruby.L1Cache_Controller.Load      |        2671      3.26%      3.26% |       79147     96.74%    100.00%
system.ruby.L1Cache_Controller.Load::total        81818                      
system.ruby.L1Cache_Controller.Store     |       61608     98.73%     98.73% |         790      1.27%    100.00%
system.ruby.L1Cache_Controller.Store::total        62398                      
system.ruby.L1Cache_Controller.WriteBack |       62197     45.19%     45.19% |       75450     54.81%    100.00%
system.ruby.L1Cache_Controller.WriteBack::total       137647                      
system.ruby.L1Cache_Controller.L0_DataAck |         381     57.04%     57.04% |         287     42.96%    100.00%
system.ruby.L1Cache_Controller.L0_DataAck::total          668                      
system.ruby.L1Cache_Controller.Inv       |           3     15.79%     15.79% |          16     84.21%    100.00%
system.ruby.L1Cache_Controller.Inv::total           19                      
system.ruby.L1Cache_Controller.L0_Invalidate_Own |        1888     61.10%     61.10% |        1202     38.90%    100.00%
system.ruby.L1Cache_Controller.L0_Invalidate_Own::total         3090                      
system.ruby.L1Cache_Controller.L0_Invalidate_Else |         536     94.37%     94.37% |          32      5.63%    100.00%
system.ruby.L1Cache_Controller.L0_Invalidate_Else::total          568                      
system.ruby.L1Cache_Controller.L1_Replacement |       58843     67.16%     67.16% |       28775     32.84%    100.00%
system.ruby.L1Cache_Controller.L1_Replacement::total        87618                      
system.ruby.L1Cache_Controller.Fwd_GETX  |           0      0.00%      0.00% |           1    100.00%    100.00%
system.ruby.L1Cache_Controller.Fwd_GETX::total            1                      
system.ruby.L1Cache_Controller.Fwd_GETS  |        3783     99.79%     99.79% |           8      0.21%    100.00%
system.ruby.L1Cache_Controller.Fwd_GETS::total         3791                      
system.ruby.L1Cache_Controller.Data      |           0      0.00%      0.00% |           1    100.00%    100.00%
system.ruby.L1Cache_Controller.Data::total            1                      
system.ruby.L1Cache_Controller.Data_Exclusive |        2016      6.64%      6.64% |       28339     93.36%    100.00%
system.ruby.L1Cache_Controller.Data_Exclusive::total        30355                      
system.ruby.L1Cache_Controller.DataS_fromL1 |           8      0.21%      0.21% |        3783     99.79%    100.00%
system.ruby.L1Cache_Controller.DataS_fromL1::total         3791                      
system.ruby.L1Cache_Controller.Data_all_Acks |       61566     98.70%     98.70% |         814      1.30%    100.00%
system.ruby.L1Cache_Controller.Data_all_Acks::total        62380                      
system.ruby.L1Cache_Controller.L0_Ack    |         831     71.58%     71.58% |         330     28.42%    100.00%
system.ruby.L1Cache_Controller.L0_Ack::total         1161                      
system.ruby.L1Cache_Controller.Ack       |          16     88.89%     88.89% |           2     11.11%    100.00%
system.ruby.L1Cache_Controller.Ack::total           18                      
system.ruby.L1Cache_Controller.Ack_all   |          16     84.21%     84.21% |           3     15.79%    100.00%
system.ruby.L1Cache_Controller.Ack_all::total           19                      
system.ruby.L1Cache_Controller.WB_Ack    |       58218     67.00%     67.00% |       28681     33.00%    100.00%
system.ruby.L1Cache_Controller.WB_Ack::total        86899                      
system.ruby.L1Cache_Controller.NP.Load   |        2024      5.92%      5.92% |       32149     94.08%    100.00%
system.ruby.L1Cache_Controller.NP.Load::total        34173                      
system.ruby.L1Cache_Controller.NP.Store  |       61566     98.74%     98.74% |         788      1.26%    100.00%
system.ruby.L1Cache_Controller.NP.Store::total        62354                      
system.ruby.L1Cache_Controller.NP.Inv    |           0      0.00%      0.00% |           4    100.00%    100.00%
system.ruby.L1Cache_Controller.NP.Inv::total            4                      
system.ruby.L1Cache_Controller.S.Load    |           1      1.11%      1.11% |          89     98.89%    100.00%
system.ruby.L1Cache_Controller.S.Load::total           90                      
system.ruby.L1Cache_Controller.S.Store   |          16     88.89%     88.89% |           2     11.11%    100.00%
system.ruby.L1Cache_Controller.S.Store::total           18                      
system.ruby.L1Cache_Controller.S.L0_Invalidate_Own |           0      0.00%      0.00% |          94    100.00%    100.00%
system.ruby.L1Cache_Controller.S.L0_Invalidate_Own::total           94                      
system.ruby.L1Cache_Controller.S.L0_Invalidate_Else |           1     12.50%     12.50% |           7     87.50%    100.00%
system.ruby.L1Cache_Controller.S.L0_Invalidate_Else::total            8                      
system.ruby.L1Cache_Controller.SS.Load   |          16    100.00%    100.00% |           0      0.00%    100.00%
system.ruby.L1Cache_Controller.SS.Load::total           16                      
system.ruby.L1Cache_Controller.SS.Inv    |           3     20.00%     20.00% |          12     80.00%    100.00%
system.ruby.L1Cache_Controller.SS.Inv::total           15                      
system.ruby.L1Cache_Controller.SS.L1_Replacement |         625     86.93%     86.93% |          94     13.07%    100.00%
system.ruby.L1Cache_Controller.SS.L1_Replacement::total          719                      
system.ruby.L1Cache_Controller.E.WriteBack |         714      2.48%      2.48% |       28064     97.52%    100.00%
system.ruby.L1Cache_Controller.E.WriteBack::total        28778                      
system.ruby.L1Cache_Controller.E.L0_Invalidate_Own |         815     77.99%     77.99% |         230     22.01%    100.00%
system.ruby.L1Cache_Controller.E.L0_Invalidate_Own::total         1045                      
system.ruby.L1Cache_Controller.E.L0_Invalidate_Else |          15     75.00%     75.00% |           5     25.00%    100.00%
system.ruby.L1Cache_Controller.E.L0_Invalidate_Else::total           20                      
system.ruby.L1Cache_Controller.EE.L1_Replacement |         759     77.13%     77.13% |         225     22.87%    100.00%
system.ruby.L1Cache_Controller.EE.L1_Replacement::total          984                      
system.ruby.L1Cache_Controller.EE.Fwd_GETS |          13     76.47%     76.47% |           4     23.53%    100.00%
system.ruby.L1Cache_Controller.EE.Fwd_GETS::total           17                      
system.ruby.L1Cache_Controller.M.WriteBack |       61483     56.47%     56.47% |       47386     43.53%    100.00%
system.ruby.L1Cache_Controller.M.WriteBack::total       108869                      
system.ruby.L1Cache_Controller.M.L0_Invalidate_Own |         129     31.77%     31.77% |         277     68.23%    100.00%
system.ruby.L1Cache_Controller.M.L0_Invalidate_Own::total          406                      
system.ruby.L1Cache_Controller.M.L0_Invalidate_Else |         252     98.44%     98.44% |           4      1.56%    100.00%
system.ruby.L1Cache_Controller.M.L0_Invalidate_Else::total          256                      
system.ruby.L1Cache_Controller.MM.Load   |         630      1.33%      1.33% |       46909     98.67%    100.00%
system.ruby.L1Cache_Controller.MM.Load::total        47539                      
system.ruby.L1Cache_Controller.MM.Store  |          26    100.00%    100.00% |           0      0.00%    100.00%
system.ruby.L1Cache_Controller.MM.Store::total           26                      
system.ruby.L1Cache_Controller.MM.L1_Replacement |       57459     66.88%     66.88% |       28456     33.12%    100.00%
system.ruby.L1Cache_Controller.MM.L1_Replacement::total        85915                      
system.ruby.L1Cache_Controller.MM.Fwd_GETX |           0      0.00%      0.00% |           1    100.00%    100.00%
system.ruby.L1Cache_Controller.MM.Fwd_GETX::total            1                      
system.ruby.L1Cache_Controller.MM.Fwd_GETS |        3770     99.89%     99.89% |           4      0.11%    100.00%
system.ruby.L1Cache_Controller.MM.Fwd_GETS::total         3774                      
system.ruby.L1Cache_Controller.IS.Data_Exclusive |        2016      6.64%      6.64% |       28339     93.36%    100.00%
system.ruby.L1Cache_Controller.IS.Data_Exclusive::total        30355                      
system.ruby.L1Cache_Controller.IS.DataS_fromL1 |           8      0.21%      0.21% |        3783     99.79%    100.00%
system.ruby.L1Cache_Controller.IS.DataS_fromL1::total         3791                      
system.ruby.L1Cache_Controller.IS.Data_all_Acks |           0      0.00%      0.00% |          27    100.00%    100.00%
system.ruby.L1Cache_Controller.IS.Data_all_Acks::total           27                      
system.ruby.L1Cache_Controller.IM.Data   |           0      0.00%      0.00% |           1    100.00%    100.00%
system.ruby.L1Cache_Controller.IM.Data::total            1                      
system.ruby.L1Cache_Controller.IM.Data_all_Acks |       61566     98.74%     98.74% |         787      1.26%    100.00%
system.ruby.L1Cache_Controller.IM.Data_all_Acks::total        62353                      
system.ruby.L1Cache_Controller.SM.Ack    |          16     88.89%     88.89% |           2     11.11%    100.00%
system.ruby.L1Cache_Controller.SM.Ack::total           18                      
system.ruby.L1Cache_Controller.SM.Ack_all |          16     84.21%     84.21% |           3     15.79%    100.00%
system.ruby.L1Cache_Controller.SM.Ack_all::total           19                      
system.ruby.L1Cache_Controller.M_I.WB_Ack |       58218     67.00%     67.00% |       28681     33.00%    100.00%
system.ruby.L1Cache_Controller.M_I.WB_Ack::total        86899                      
system.ruby.L1Cache_Controller.S_IL0.L0_Invalidate_Own |           0      0.00%      0.00% |          94    100.00%    100.00%
system.ruby.L1Cache_Controller.S_IL0.L0_Invalidate_Own::total           94                      
system.ruby.L1Cache_Controller.S_IL0.L0_Invalidate_Else |           1     12.50%     12.50% |           7     87.50%    100.00%
system.ruby.L1Cache_Controller.S_IL0.L0_Invalidate_Else::total            8                      
system.ruby.L1Cache_Controller.S_IL0.L0_Ack |           1      0.98%      0.98% |         101     99.02%    100.00%
system.ruby.L1Cache_Controller.S_IL0.L0_Ack::total          102                      
system.ruby.L1Cache_Controller.E_IL0.L0_DataAck |          58     90.62%     90.62% |           6      9.38%    100.00%
system.ruby.L1Cache_Controller.E_IL0.L0_DataAck::total           64                      
system.ruby.L1Cache_Controller.E_IL0.L0_Invalidate_Own |         815     77.99%     77.99% |         230     22.01%    100.00%
system.ruby.L1Cache_Controller.E_IL0.L0_Invalidate_Own::total         1045                      
system.ruby.L1Cache_Controller.E_IL0.L0_Invalidate_Else |          15     75.00%     75.00% |           5     25.00%    100.00%
system.ruby.L1Cache_Controller.E_IL0.L0_Invalidate_Else::total           20                      
system.ruby.L1Cache_Controller.E_IL0.L0_Ack |         772     77.12%     77.12% |         229     22.88%    100.00%
system.ruby.L1Cache_Controller.E_IL0.L0_Ack::total         1001                      
system.ruby.L1Cache_Controller.M_IL0.L0_DataAck |         323     53.48%     53.48% |         281     46.52%    100.00%
system.ruby.L1Cache_Controller.M_IL0.L0_DataAck::total          604                      
system.ruby.L1Cache_Controller.M_IL0.L0_Invalidate_Own |         129     31.77%     31.77% |         277     68.23%    100.00%
system.ruby.L1Cache_Controller.M_IL0.L0_Invalidate_Own::total          406                      
system.ruby.L1Cache_Controller.M_IL0.L0_Invalidate_Else |         252     98.44%     98.44% |           4      1.56%    100.00%
system.ruby.L1Cache_Controller.M_IL0.L0_Invalidate_Else::total          256                      
system.ruby.L1Cache_Controller.M_IL0.L0_Ack |          58    100.00%    100.00% |           0      0.00%    100.00%
system.ruby.L1Cache_Controller.M_IL0.L0_Ack::total           58                      
system.ruby.L2Cache_Controller.L1_GETS          34173      0.00%      0.00%
system.ruby.L2Cache_Controller.L1_GETX          62354      0.00%      0.00%
system.ruby.L2Cache_Controller.L1_UPGRADE           18      0.00%      0.00%
system.ruby.L2Cache_Controller.L1_PUTX          86899      0.00%      0.00%
system.ruby.L2Cache_Controller.Mem_Data         63693      0.00%      0.00%
system.ruby.L2Cache_Controller.WB_Data           3791      0.00%      0.00%
system.ruby.L2Cache_Controller.Unblock           3791      0.00%      0.00%
system.ruby.L2Cache_Controller.Exclusive_Unblock        92727      0.00%      0.00%
system.ruby.L2Cache_Controller.NP.L1_GETS         1414      0.00%      0.00%
system.ruby.L2Cache_Controller.NP.L1_GETX        62279      0.00%      0.00%
system.ruby.L2Cache_Controller.SS.L1_GETS           27      0.00%      0.00%
system.ruby.L2Cache_Controller.SS.L1_GETX            1      0.00%      0.00%
system.ruby.L2Cache_Controller.SS.L1_UPGRADE           18      0.00%      0.00%
system.ruby.L2Cache_Controller.M.L1_GETS        28941      0.00%      0.00%
system.ruby.L2Cache_Controller.M.L1_GETX           73      0.00%      0.00%
system.ruby.L2Cache_Controller.MT.L1_GETS         3791      0.00%      0.00%
system.ruby.L2Cache_Controller.MT.L1_GETX            1      0.00%      0.00%
system.ruby.L2Cache_Controller.MT.L1_PUTX        86899      0.00%      0.00%
system.ruby.L2Cache_Controller.ISS.Mem_Data         1414      0.00%      0.00%
system.ruby.L2Cache_Controller.IM.Mem_Data        62279      0.00%      0.00%
system.ruby.L2Cache_Controller.SS_MB.Exclusive_Unblock           19      0.00%      0.00%
system.ruby.L2Cache_Controller.MT_MB.Exclusive_Unblock        92708      0.00%      0.00%
system.ruby.L2Cache_Controller.MT_IIB.WB_Data         3791      0.00%      0.00%
system.ruby.L2Cache_Controller.MT_SB.Unblock         3791      0.00%      0.00%

---------- End Simulation Statistics   ----------
