
---------- Begin Simulation Statistics ----------
sim_seconds                                  2.919441                       # Number of seconds simulated
sim_ticks                                2919440524000                       # Number of ticks simulated
final_tick                               2919440524000                       # Number of ticks from beginning of simulation (restored from checkpoints and never reset)
sim_freq                                 1000000000000                       # Frequency of simulated ticks
host_inst_rate                                 143712                       # Simulator instruction rate (inst/s)
host_op_rate                                   397488                       # Simulator op (including micro ops) rate (op/s)
host_tick_rate                              241292485                       # Simulator tick rate (ticks/s)
host_mem_usage                                3422072                       # Number of bytes of host memory used
host_seconds                                 12099.18                       # Real time elapsed on the host
sim_insts                                  1738796147                       # Number of instructions simulated
sim_ops                                    4809275803                       # Number of ops (including micro ops) simulated
system.voltage_domain.voltage                       1                       # Voltage in Volts
system.clk_domain.clock                          1000                       # Clock period in ticks
system.mem_ctrls.bytes_read::ruby.dir_cntrl0    239591936                       # Number of bytes read from this memory
system.mem_ctrls.bytes_read::total          239591936                       # Number of bytes read from this memory
system.mem_ctrls.bytes_written::ruby.dir_cntrl0    139262592                       # Number of bytes written to this memory
system.mem_ctrls.bytes_written::total       139262592                       # Number of bytes written to this memory
system.mem_ctrls.num_reads::ruby.dir_cntrl0      3743624                       # Number of read requests responded to by this memory
system.mem_ctrls.num_reads::total             3743624                       # Number of read requests responded to by this memory
system.mem_ctrls.num_writes::ruby.dir_cntrl0      2175978                       # Number of write requests responded to by this memory
system.mem_ctrls.num_writes::total            2175978                       # Number of write requests responded to by this memory
system.mem_ctrls.bw_read::ruby.dir_cntrl0     82067757                       # Total read bandwidth from this memory (bytes/s)
system.mem_ctrls.bw_read::total              82067757                       # Total read bandwidth from this memory (bytes/s)
system.mem_ctrls.bw_write::ruby.dir_cntrl0     47701808                       # Write bandwidth from this memory (bytes/s)
system.mem_ctrls.bw_write::total             47701808                       # Write bandwidth from this memory (bytes/s)
system.mem_ctrls.bw_total::ruby.dir_cntrl0    129769565                       # Total bandwidth to/from this memory (bytes/s)
system.mem_ctrls.bw_total::total            129769565                       # Total bandwidth to/from this memory (bytes/s)
system.mem_ctrls.memReq                       5919602                       # Total number of memory requests
system.mem_ctrls.memRead                      3743624                       # Number of memory reads
system.mem_ctrls.memWrite                     2175978                       # Number of memory writes
system.mem_ctrls.memRefresh                  37008902                       # Number of memory refreshes
system.mem_ctrls.memWaitCycles               19982917                       # Delay stalled at the head of the bank queue
system.mem_ctrls.memInputQ                       1071                       # Delay in the input queue
system.mem_ctrls.memBankQ                       88872                       # Delay behind the head of the bank queue
system.mem_ctrls.totalStalls                 20072860                       # Total number of stall cycles
system.mem_ctrls.stallsPerReq                3.390914                       # Expected number of stall cycles per request
system.mem_ctrls.memBankBusy                 19870746                       # memory stalls due to busy bank
system.mem_ctrls.memBusBusy                     82153                       # memory stalls due to busy bus
system.mem_ctrls.memReadWriteBusy                 923                       # memory stalls due to read write turnaround
system.mem_ctrls.memDataBusBusy                  4558                       # memory stalls due to read read turnaround
system.mem_ctrls.memArbWait                     24537                       # memory stalls due to arbitration
system.mem_ctrls.memBankCount            |      185233      3.13%      3.13% |      185501      3.13%      6.26% |      184890      3.12%      9.39% |      184798      3.12%     12.51% |      184958      3.12%     15.63% |      184497      3.12%     18.75% |      185464      3.13%     21.88% |      186213      3.15%     25.03% |      186629      3.15%     28.18% |      184878      3.12%     31.30% |      184815      3.12%     34.43% |      184367      3.11%     37.54% |      185538      3.13%     40.67% |      182606      3.08%     43.76% |      184092      3.11%     46.87% |      185020      3.13%     49.99% |      185171      3.13%     53.12% |      184716      3.12%     56.24% |      184626      3.12%     59.36% |      184245      3.11%     62.47% |      182907      3.09%     65.56% |      184213      3.11%     68.68% |      184994      3.13%     71.80% |      185391      3.13%     74.93% |      186121      3.14%     78.08% |      185261      3.13%     81.21% |      185236      3.13%     84.34% |      185497      3.13%     87.47% |      186106      3.14%     90.61% |      185964      3.14%     93.76% |      184746      3.12%     96.88% |      184909      3.12%    100.00% # Number of accesses per bank
system.mem_ctrls.memBankCount::total          5919602                       # Number of accesses per bank
system.cpu_voltage_domain.voltage                   1                       # Voltage in Volts
system.cpu_clk_domain.clock                       500                       # Clock period in ticks
system.cpu0.apic_clk_domain.clock                8000                       # Clock period in ticks
system.cpu0.workload.num_syscalls                 110                       # Number of system calls
system.cpu0.numCycles                      5838881048                       # number of cpu cycles simulated
system.cpu0.numWorkItemsStarted                     0                       # number of work items this cpu started
system.cpu0.numWorkItemsCompleted                   0                       # number of work items this cpu completed
system.cpu0.committedInsts                 1622641683                       # Number of instructions committed
system.cpu0.committedOps                   4576979413                       # Number of ops (including micro ops) committed
system.cpu0.num_int_alu_accesses           4320795796                       # Number of integer alu accesses
system.cpu0.num_fp_alu_accesses             108341154                       # Number of float alu accesses
system.cpu0.num_func_calls                  152159734                       # number of times a function call or return occured
system.cpu0.num_conditional_control_insts    357522180                       # number of instructions that are conditional controls
system.cpu0.num_int_insts                  4320795796                       # number of integer instructions
system.cpu0.num_fp_insts                    108341154                       # number of float instructions
system.cpu0.num_int_register_reads         9113048462                       # number of times the integer registers were read
system.cpu0.num_int_register_writes        4288425368                       # number of times the integer registers were written
system.cpu0.num_fp_register_reads           174106828                       # number of times the floating registers were read
system.cpu0.num_fp_register_writes           85151978                       # number of times the floating registers were written
system.cpu0.num_cc_register_reads          3660048647                       # number of times the CC registers were read
system.cpu0.num_cc_register_writes         1369811727                       # number of times the CC registers were written
system.cpu0.num_mem_refs                    713539781                       # number of memory refs
system.cpu0.num_load_insts                  434903675                       # Number of load instructions
system.cpu0.num_store_insts                 278636106                       # Number of store instructions
system.cpu0.num_idle_cycles                  0.002000                       # Number of idle cycles
system.cpu0.num_busy_cycles              5838881047.998000                       # Number of busy cycles
system.cpu0.not_idle_fraction                1.000000                       # Percentage of non-idle cycles
system.cpu0.idle_fraction                    0.000000                       # Percentage of idle cycles
system.cpu0.Branches                        582680214                       # Number of branches fetched
system.cpu0.op_class::No_OpClass             88981567      1.94%      1.94% # Class of executed instruction
system.cpu0.op_class::IntAlu               3309270007     72.30%     74.25% # Class of executed instruction
system.cpu0.op_class::IntMult                     349      0.00%     74.25% # Class of executed instruction
system.cpu0.op_class::IntDiv                380036478      8.30%     82.55% # Class of executed instruction
system.cpu0.op_class::FloatAdd               85151231      1.86%     84.41% # Class of executed instruction
system.cpu0.op_class::FloatCmp                      0      0.00%     84.41% # Class of executed instruction
system.cpu0.op_class::FloatCvt                      0      0.00%     84.41% # Class of executed instruction
system.cpu0.op_class::FloatMult                     0      0.00%     84.41% # Class of executed instruction
system.cpu0.op_class::FloatDiv                      0      0.00%     84.41% # Class of executed instruction
system.cpu0.op_class::FloatSqrt                     0      0.00%     84.41% # Class of executed instruction
system.cpu0.op_class::SimdAdd                       0      0.00%     84.41% # Class of executed instruction
system.cpu0.op_class::SimdAddAcc                    0      0.00%     84.41% # Class of executed instruction
system.cpu0.op_class::SimdAlu                       0      0.00%     84.41% # Class of executed instruction
system.cpu0.op_class::SimdCmp                       0      0.00%     84.41% # Class of executed instruction
system.cpu0.op_class::SimdCvt                       0      0.00%     84.41% # Class of executed instruction
system.cpu0.op_class::SimdMisc                      0      0.00%     84.41% # Class of executed instruction
system.cpu0.op_class::SimdMult                      0      0.00%     84.41% # Class of executed instruction
system.cpu0.op_class::SimdMultAcc                   0      0.00%     84.41% # Class of executed instruction
system.cpu0.op_class::SimdShift                     0      0.00%     84.41% # Class of executed instruction
system.cpu0.op_class::SimdShiftAcc                  0      0.00%     84.41% # Class of executed instruction
system.cpu0.op_class::SimdSqrt                      0      0.00%     84.41% # Class of executed instruction
system.cpu0.op_class::SimdFloatAdd                  0      0.00%     84.41% # Class of executed instruction
system.cpu0.op_class::SimdFloatAlu                  0      0.00%     84.41% # Class of executed instruction
system.cpu0.op_class::SimdFloatCmp                  0      0.00%     84.41% # Class of executed instruction
system.cpu0.op_class::SimdFloatCvt                  0      0.00%     84.41% # Class of executed instruction
system.cpu0.op_class::SimdFloatDiv                  0      0.00%     84.41% # Class of executed instruction
system.cpu0.op_class::SimdFloatMisc                 0      0.00%     84.41% # Class of executed instruction
system.cpu0.op_class::SimdFloatMult                 0      0.00%     84.41% # Class of executed instruction
system.cpu0.op_class::SimdFloatMultAcc              0      0.00%     84.41% # Class of executed instruction
system.cpu0.op_class::SimdFloatSqrt                 0      0.00%     84.41% # Class of executed instruction
system.cpu0.op_class::MemRead               434903675      9.50%     93.91% # Class of executed instruction
system.cpu0.op_class::MemWrite              278636106      6.09%    100.00% # Class of executed instruction
system.cpu0.op_class::IprAccess                     0      0.00%    100.00% # Class of executed instruction
system.cpu0.op_class::InstPrefetch                  0      0.00%    100.00% # Class of executed instruction
system.cpu0.op_class::total                4576979413                       # Class of executed instruction
system.cpu1.apic_clk_domain.clock                8000                       # Clock period in ticks
system.cpu1.numCycles                      5838645632                       # number of cpu cycles simulated
system.cpu1.numWorkItemsStarted                     0                       # number of work items this cpu started
system.cpu1.numWorkItemsCompleted                   0                       # number of work items this cpu completed
system.cpu1.committedInsts                   58077232                       # Number of instructions committed
system.cpu1.committedOps                    116148195                       # Number of ops (including micro ops) committed
system.cpu1.num_int_alu_accesses             87175319                       # Number of integer alu accesses
system.cpu1.num_fp_alu_accesses              56894279                       # Number of float alu accesses
system.cpu1.num_func_calls                     161815                       # number of times a function call or return occured
system.cpu1.num_conditional_control_insts      7134452                       # number of instructions that are conditional controls
system.cpu1.num_int_insts                    87175319                       # number of integer instructions
system.cpu1.num_fp_insts                     56894279                       # number of float instructions
system.cpu1.num_int_register_reads          153196448                       # number of times the integer registers were read
system.cpu1.num_int_register_writes          52032168                       # number of times the integer registers were written
system.cpu1.num_fp_register_reads            86190677                       # number of times the floating registers were read
system.cpu1.num_fp_register_writes           56813392                       # number of times the floating registers were written
system.cpu1.num_cc_register_reads            42887640                       # number of times the CC registers were read
system.cpu1.num_cc_register_writes           42862530                       # number of times the CC registers were written
system.cpu1.num_mem_refs                     28338623                       # number of memory refs
system.cpu1.num_load_insts                   28176742                       # Number of load instructions
system.cpu1.num_store_insts                    161881                       # Number of store instructions
system.cpu1.num_idle_cycles              5556974053.085387                       # Number of idle cycles
system.cpu1.num_busy_cycles              281671578.914613                       # Number of busy cycles
system.cpu1.not_idle_fraction                0.048243                       # Percentage of non-idle cycles
system.cpu1.idle_fraction                    0.951757                       # Percentage of idle cycles
system.cpu1.Branches                          7383422                       # Number of branches fetched
system.cpu1.op_class::No_OpClass                    2      0.00%      0.00% # Class of executed instruction
system.cpu1.op_class::IntAlu                 58594024     50.45%     50.45% # Class of executed instruction
system.cpu1.op_class::IntMult                  242657      0.21%     50.66% # Class of executed instruction
system.cpu1.op_class::IntDiv                       14      0.00%     50.66% # Class of executed instruction
system.cpu1.op_class::FloatAdd               28972875     24.94%     75.60% # Class of executed instruction
system.cpu1.op_class::FloatCmp                      0      0.00%     75.60% # Class of executed instruction
system.cpu1.op_class::FloatCvt                      0      0.00%     75.60% # Class of executed instruction
system.cpu1.op_class::FloatMult                     0      0.00%     75.60% # Class of executed instruction
system.cpu1.op_class::FloatDiv                      0      0.00%     75.60% # Class of executed instruction
system.cpu1.op_class::FloatSqrt                     0      0.00%     75.60% # Class of executed instruction
system.cpu1.op_class::SimdAdd                       0      0.00%     75.60% # Class of executed instruction
system.cpu1.op_class::SimdAddAcc                    0      0.00%     75.60% # Class of executed instruction
system.cpu1.op_class::SimdAlu                       0      0.00%     75.60% # Class of executed instruction
system.cpu1.op_class::SimdCmp                       0      0.00%     75.60% # Class of executed instruction
system.cpu1.op_class::SimdCvt                       0      0.00%     75.60% # Class of executed instruction
system.cpu1.op_class::SimdMisc                      0      0.00%     75.60% # Class of executed instruction
system.cpu1.op_class::SimdMult                      0      0.00%     75.60% # Class of executed instruction
system.cpu1.op_class::SimdMultAcc                   0      0.00%     75.60% # Class of executed instruction
system.cpu1.op_class::SimdShift                     0      0.00%     75.60% # Class of executed instruction
system.cpu1.op_class::SimdShiftAcc                  0      0.00%     75.60% # Class of executed instruction
system.cpu1.op_class::SimdSqrt                      0      0.00%     75.60% # Class of executed instruction
system.cpu1.op_class::SimdFloatAdd                  0      0.00%     75.60% # Class of executed instruction
system.cpu1.op_class::SimdFloatAlu                  0      0.00%     75.60% # Class of executed instruction
system.cpu1.op_class::SimdFloatCmp                  0      0.00%     75.60% # Class of executed instruction
system.cpu1.op_class::SimdFloatCvt                  0      0.00%     75.60% # Class of executed instruction
system.cpu1.op_class::SimdFloatDiv                  0      0.00%     75.60% # Class of executed instruction
system.cpu1.op_class::SimdFloatMisc                 0      0.00%     75.60% # Class of executed instruction
system.cpu1.op_class::SimdFloatMult                 0      0.00%     75.60% # Class of executed instruction
system.cpu1.op_class::SimdFloatMultAcc              0      0.00%     75.60% # Class of executed instruction
system.cpu1.op_class::SimdFloatSqrt                 0      0.00%     75.60% # Class of executed instruction
system.cpu1.op_class::MemRead                28176742     24.26%     99.86% # Class of executed instruction
system.cpu1.op_class::MemWrite                 161881      0.14%    100.00% # Class of executed instruction
system.cpu1.op_class::IprAccess                     0      0.00%    100.00% # Class of executed instruction
system.cpu1.op_class::InstPrefetch                  0      0.00%    100.00% # Class of executed instruction
system.cpu1.op_class::total                 116148195                       # Class of executed instruction
system.cpu2.apic_clk_domain.clock                8000                       # Clock period in ticks
system.cpu2.numCycles                      5821674298                       # number of cpu cycles simulated
system.cpu2.numWorkItemsStarted                     0                       # number of work items this cpu started
system.cpu2.numWorkItemsCompleted                   0                       # number of work items this cpu completed
system.cpu2.committedInsts                   58077232                       # Number of instructions committed
system.cpu2.committedOps                    116148195                       # Number of ops (including micro ops) committed
system.cpu2.num_int_alu_accesses             87175319                       # Number of integer alu accesses
system.cpu2.num_fp_alu_accesses              56894279                       # Number of float alu accesses
system.cpu2.num_func_calls                     161815                       # number of times a function call or return occured
system.cpu2.num_conditional_control_insts      7134452                       # number of instructions that are conditional controls
system.cpu2.num_int_insts                    87175319                       # number of integer instructions
system.cpu2.num_fp_insts                     56894279                       # number of float instructions
system.cpu2.num_int_register_reads          153196448                       # number of times the integer registers were read
system.cpu2.num_int_register_writes          52032168                       # number of times the integer registers were written
system.cpu2.num_fp_register_reads            86190677                       # number of times the floating registers were read
system.cpu2.num_fp_register_writes           56813392                       # number of times the floating registers were written
system.cpu2.num_cc_register_reads            42887640                       # number of times the CC registers were read
system.cpu2.num_cc_register_writes           42862530                       # number of times the CC registers were written
system.cpu2.num_mem_refs                     28338623                       # number of memory refs
system.cpu2.num_load_insts                   28176742                       # Number of load instructions
system.cpu2.num_store_insts                    161881                       # Number of store instructions
system.cpu2.num_idle_cycles              5557743297.959188                       # Number of idle cycles
system.cpu2.num_busy_cycles              263931000.040813                       # Number of busy cycles
system.cpu2.not_idle_fraction                0.045336                       # Percentage of non-idle cycles
system.cpu2.idle_fraction                    0.954664                       # Percentage of idle cycles
system.cpu2.Branches                          7383422                       # Number of branches fetched
system.cpu2.op_class::No_OpClass                    2      0.00%      0.00% # Class of executed instruction
system.cpu2.op_class::IntAlu                 58594024     50.45%     50.45% # Class of executed instruction
system.cpu2.op_class::IntMult                  242657      0.21%     50.66% # Class of executed instruction
system.cpu2.op_class::IntDiv                       14      0.00%     50.66% # Class of executed instruction
system.cpu2.op_class::FloatAdd               28972875     24.94%     75.60% # Class of executed instruction
system.cpu2.op_class::FloatCmp                      0      0.00%     75.60% # Class of executed instruction
system.cpu2.op_class::FloatCvt                      0      0.00%     75.60% # Class of executed instruction
system.cpu2.op_class::FloatMult                     0      0.00%     75.60% # Class of executed instruction
system.cpu2.op_class::FloatDiv                      0      0.00%     75.60% # Class of executed instruction
system.cpu2.op_class::FloatSqrt                     0      0.00%     75.60% # Class of executed instruction
system.cpu2.op_class::SimdAdd                       0      0.00%     75.60% # Class of executed instruction
system.cpu2.op_class::SimdAddAcc                    0      0.00%     75.60% # Class of executed instruction
system.cpu2.op_class::SimdAlu                       0      0.00%     75.60% # Class of executed instruction
system.cpu2.op_class::SimdCmp                       0      0.00%     75.60% # Class of executed instruction
system.cpu2.op_class::SimdCvt                       0      0.00%     75.60% # Class of executed instruction
system.cpu2.op_class::SimdMisc                      0      0.00%     75.60% # Class of executed instruction
system.cpu2.op_class::SimdMult                      0      0.00%     75.60% # Class of executed instruction
system.cpu2.op_class::SimdMultAcc                   0      0.00%     75.60% # Class of executed instruction
system.cpu2.op_class::SimdShift                     0      0.00%     75.60% # Class of executed instruction
system.cpu2.op_class::SimdShiftAcc                  0      0.00%     75.60% # Class of executed instruction
system.cpu2.op_class::SimdSqrt                      0      0.00%     75.60% # Class of executed instruction
system.cpu2.op_class::SimdFloatAdd                  0      0.00%     75.60% # Class of executed instruction
system.cpu2.op_class::SimdFloatAlu                  0      0.00%     75.60% # Class of executed instruction
system.cpu2.op_class::SimdFloatCmp                  0      0.00%     75.60% # Class of executed instruction
system.cpu2.op_class::SimdFloatCvt                  0      0.00%     75.60% # Class of executed instruction
system.cpu2.op_class::SimdFloatDiv                  0      0.00%     75.60% # Class of executed instruction
system.cpu2.op_class::SimdFloatMisc                 0      0.00%     75.60% # Class of executed instruction
system.cpu2.op_class::SimdFloatMult                 0      0.00%     75.60% # Class of executed instruction
system.cpu2.op_class::SimdFloatMultAcc              0      0.00%     75.60% # Class of executed instruction
system.cpu2.op_class::SimdFloatSqrt                 0      0.00%     75.60% # Class of executed instruction
system.cpu2.op_class::MemRead                28176742     24.26%     99.86% # Class of executed instruction
system.cpu2.op_class::MemWrite                 161881      0.14%    100.00% # Class of executed instruction
system.cpu2.op_class::IprAccess                     0      0.00%    100.00% # Class of executed instruction
system.cpu2.op_class::InstPrefetch                  0      0.00%    100.00% # Class of executed instruction
system.cpu2.op_class::total                 116148195                       # Class of executed instruction
system.ruby.clk_domain.clock                      500                       # Clock period in ticks
system.ruby.delayHist::bucket_size                 16                       # delay histogram for all message
system.ruby.delayHist::max_bucket                 159                       # delay histogram for all message
system.ruby.delayHist::samples               40503427                       # delay histogram for all message
system.ruby.delayHist::mean                  0.460131                       # delay histogram for all message
system.ruby.delayHist::stdev                 1.852878                       # delay histogram for all message
system.ruby.delayHist                    |    40501720    100.00%    100.00% |        1669      0.00%    100.00% |          30      0.00%    100.00% |           7      0.00%    100.00% |           0      0.00%    100.00% |           1      0.00%    100.00% |           0      0.00%    100.00% |           0      0.00%    100.00% |           0      0.00%    100.00% |           0      0.00%    100.00% # delay histogram for all message
system.ruby.delayHist::total                 40503427                       # delay histogram for all message
system.ruby.outstanding_req_hist::bucket_size            1                      
system.ruby.outstanding_req_hist::max_bucket            9                      
system.ruby.outstanding_req_hist::samples   3030380348                      
system.ruby.outstanding_req_hist::mean       1.000195                      
system.ruby.outstanding_req_hist::gmean      1.000135                      
system.ruby.outstanding_req_hist::stdev      0.013951                      
system.ruby.outstanding_req_hist         |           0      0.00%      0.00% |  3029790460     99.98%     99.98% |      589888      0.02%    100.00% |           0      0.00%    100.00% |           0      0.00%    100.00% |           0      0.00%    100.00% |           0      0.00%    100.00% |           0      0.00%    100.00% |           0      0.00%    100.00% |           0      0.00%    100.00%
system.ruby.outstanding_req_hist::total    3030380348                      
system.ruby.latency_hist::bucket_size              16                      
system.ruby.latency_hist::max_bucket              159                      
system.ruby.latency_hist::samples          3030380348                      
system.ruby.latency_hist::mean               1.107379                      
system.ruby.latency_hist::gmean              1.007296                      
system.ruby.latency_hist::stdev              2.795988                      
system.ruby.latency_hist                 |  3024936548     99.82%     99.82% |     1697320      0.06%     99.88% |        2832      0.00%     99.88% |     1418621      0.05%     99.92% |      169328      0.01%     99.93% |     2123342      0.07%    100.00% |       32244      0.00%    100.00% |         105      0.00%    100.00% |           6      0.00%    100.00% |           2      0.00%    100.00%
system.ruby.latency_hist::total            3030380348                      
system.ruby.hit_latency_hist::bucket_size           16                      
system.ruby.hit_latency_hist::max_bucket          159                      
system.ruby.hit_latency_hist::samples      3030380348                      
system.ruby.hit_latency_hist::mean           1.107379                      
system.ruby.hit_latency_hist::gmean          1.007296                      
system.ruby.hit_latency_hist::stdev          2.795988                      
system.ruby.hit_latency_hist             |  3024936548     99.82%     99.82% |     1697320      0.06%     99.88% |        2832      0.00%     99.88% |     1418621      0.05%     99.92% |      169328      0.01%     99.93% |     2123342      0.07%    100.00% |       32244      0.00%    100.00% |         105      0.00%    100.00% |           6      0.00%    100.00% |           2      0.00%    100.00%
system.ruby.hit_latency_hist::total        3030380348                      
system.ruby.l0_cntrl0.Dcache.demand_hits    711364010                       # Number of cache demand hits
system.ruby.l0_cntrl0.Dcache.demand_misses      2175835                       # Number of cache demand misses
system.ruby.l0_cntrl0.Dcache.demand_accesses    713539845                       # Number of cache demand accesses
system.ruby.l0_cntrl0.Icache.demand_hits   2110555393                       # Number of cache demand hits
system.ruby.l0_cntrl0.Icache.demand_misses         6660                       # Number of cache demand misses
system.ruby.l0_cntrl0.Icache.demand_accesses   2110562053                       # Number of cache demand accesses
system.ruby.l0_cntrl0.Zcache.demand_hits            0                       # Number of cache demand hits
system.ruby.l0_cntrl0.Zcache.demand_misses            0                       # Number of cache demand misses
system.ruby.l0_cntrl0.Zcache.demand_accesses            0                       # Number of cache demand accesses
system.ruby.l0_cntrl1.Dcache.demand_hits     26826898                       # Number of cache demand hits
system.ruby.l0_cntrl1.Dcache.demand_misses      1806637                       # Number of cache demand misses
system.ruby.l0_cntrl1.Dcache.demand_accesses     28633535                       # Number of cache demand accesses
system.ruby.l0_cntrl1.Icache.demand_hits     74503713                       # Number of cache demand hits
system.ruby.l0_cntrl1.Icache.demand_misses         1977                       # Number of cache demand misses
system.ruby.l0_cntrl1.Icache.demand_accesses     74505690                       # Number of cache demand accesses
system.ruby.l0_cntrl1.Zcache.demand_hits            0                       # Number of cache demand hits
system.ruby.l0_cntrl1.Zcache.demand_misses            0                       # Number of cache demand misses
system.ruby.l0_cntrl1.Zcache.demand_accesses            0                       # Number of cache demand accesses
system.ruby.l0_cntrl2.Dcache.demand_hits     26834727                       # Number of cache demand hits
system.ruby.l0_cntrl2.Dcache.demand_misses      1798808                       # Number of cache demand misses
system.ruby.l0_cntrl2.Dcache.demand_accesses     28633535                       # Number of cache demand accesses
system.ruby.l0_cntrl2.Icache.demand_hits     74504145                       # Number of cache demand hits
system.ruby.l0_cntrl2.Icache.demand_misses         1545                       # Number of cache demand misses
system.ruby.l0_cntrl2.Icache.demand_accesses     74505690                       # Number of cache demand accesses
system.ruby.l0_cntrl2.Zcache.demand_hits            0                       # Number of cache demand hits
system.ruby.l0_cntrl2.Zcache.demand_misses            0                       # Number of cache demand misses
system.ruby.l0_cntrl2.Zcache.demand_accesses            0                       # Number of cache demand accesses
system.ruby.l1_cntrl0.cache.demand_hits           123                       # Number of cache demand hits
system.ruby.l1_cntrl0.cache.demand_misses      2182372                       # Number of cache demand misses
system.ruby.l1_cntrl0.cache.demand_accesses      2182495                       # Number of cache demand accesses
system.ruby.l1_cntrl1.cache.demand_hits        181507                       # Number of cache demand hits
system.ruby.l1_cntrl1.cache.demand_misses      1627107                       # Number of cache demand misses
system.ruby.l1_cntrl1.cache.demand_accesses      1808614                       # Number of cache demand accesses
system.ruby.l1_cntrl2.cache.demand_hits        166032                       # Number of cache demand hits
system.ruby.l1_cntrl2.cache.demand_misses      1634321                       # Number of cache demand misses
system.ruby.l1_cntrl2.cache.demand_accesses      1800353                       # Number of cache demand accesses
system.ruby.l2_cntrl0.L2cache.demand_hits      1698574                       # Number of cache demand hits
system.ruby.l2_cntrl0.L2cache.demand_misses      3745226                       # Number of cache demand misses
system.ruby.l2_cntrl0.L2cache.demand_accesses      5443800                       # Number of cache demand accesses
system.ruby.l2_cntrl0.fully_busy_cycles           116                       # cycles for which number of transistions == max transitions
system.ruby.memctrl_clk_domain.clock             1500                       # Clock period in ticks
system.ruby.network.routers0.percent_links_utilized            0                      
system.ruby.network.routers1.percent_links_utilized            0                      
system.ruby.network.routers2.percent_links_utilized            0                      
system.ruby.network.routers3.percent_links_utilized     0.196166                      
system.ruby.network.routers3.msg_count.Control::0      2182372                      
system.ruby.network.routers3.msg_count.Request_Control::2        19396                      
system.ruby.network.routers3.msg_count.Response_Data::1      2182383                      
system.ruby.network.routers3.msg_count.Response_Control::1      2162429                      
system.ruby.network.routers3.msg_count.Response_Control::2      2182370                      
system.ruby.network.routers3.msg_count.Writeback_Data::0      2161608                      
system.ruby.network.routers3.msg_count.Writeback_Data::1        19177                      
system.ruby.network.routers3.msg_count.Writeback_Control::0          589                      
system.ruby.network.routers3.msg_bytes.Control::0     17458976                      
system.ruby.network.routers3.msg_bytes.Request_Control::2       155168                      
system.ruby.network.routers3.msg_bytes.Response_Data::1    157131576                      
system.ruby.network.routers3.msg_bytes.Response_Control::1     17299432                      
system.ruby.network.routers3.msg_bytes.Response_Control::2     17458960                      
system.ruby.network.routers3.msg_bytes.Writeback_Data::0    155635776                      
system.ruby.network.routers3.msg_bytes.Writeback_Data::1      1380744                      
system.ruby.network.routers3.msg_bytes.Writeback_Control::0         4712                      
system.ruby.network.routers4.percent_links_utilized     0.104812                      
system.ruby.network.routers4.msg_count.Control::0      1627107                      
system.ruby.network.routers4.msg_count.Request_Control::2       387561                      
system.ruby.network.routers4.msg_count.Response_Data::1      1628283                      
system.ruby.network.routers4.msg_count.Response_Control::1      1234898                      
system.ruby.network.routers4.msg_count.Response_Control::2      1624011                      
system.ruby.network.routers4.msg_count.Writeback_Data::0        31312                      
system.ruby.network.routers4.msg_count.Writeback_Data::1       385276                      
system.ruby.network.routers4.msg_count.Writeback_Control::0      1201889                      
system.ruby.network.routers4.msg_bytes.Control::0     13016856                      
system.ruby.network.routers4.msg_bytes.Request_Control::2      3100488                      
system.ruby.network.routers4.msg_bytes.Response_Data::1    117236376                      
system.ruby.network.routers4.msg_bytes.Response_Control::1      9879184                      
system.ruby.network.routers4.msg_bytes.Response_Control::2     12992088                      
system.ruby.network.routers4.msg_bytes.Writeback_Data::0      2254464                      
system.ruby.network.routers4.msg_bytes.Writeback_Data::1     27739872                      
system.ruby.network.routers4.msg_bytes.Writeback_Control::0      9615112                      
system.ruby.network.routers5.percent_links_utilized     0.109058                      
system.ruby.network.routers5.msg_count.Control::0      1634321                      
system.ruby.network.routers5.msg_count.Request_Control::2       513150                      
system.ruby.network.routers5.msg_count.Response_Data::1      1636252                      
system.ruby.network.routers5.msg_count.Response_Control::1      1124669                      
system.ruby.network.routers5.msg_count.Response_Control::2      1630915                      
system.ruby.network.routers5.msg_count.Writeback_Data::0        21122                      
system.ruby.network.routers5.msg_count.Writeback_Data::1       506028                      
system.ruby.network.routers5.msg_count.Writeback_Control::0      1097389                      
system.ruby.network.routers5.msg_bytes.Control::0     13074568                      
system.ruby.network.routers5.msg_bytes.Request_Control::2      4105200                      
system.ruby.network.routers5.msg_bytes.Response_Data::1    117810144                      
system.ruby.network.routers5.msg_bytes.Response_Control::1      8997352                      
system.ruby.network.routers5.msg_bytes.Response_Control::2     13047320                      
system.ruby.network.routers5.msg_bytes.Writeback_Data::0      1520784                      
system.ruby.network.routers5.msg_bytes.Writeback_Data::1     36434016                      
system.ruby.network.routers5.msg_bytes.Writeback_Control::0      8779112                      
system.ruby.network.routers6.percent_links_utilized     0.676438                      
system.ruby.network.routers6.msg_count.Control::0      9187424                      
system.ruby.network.routers6.msg_count.Request_Control::2       918779                      
system.ruby.network.routers6.msg_count.Response_Data::1     11363350                      
system.ruby.network.routers6.msg_count.Response_Control::1      9751316                      
system.ruby.network.routers6.msg_count.Response_Control::2      5437296                      
system.ruby.network.routers6.msg_count.Writeback_Data::0      2214042                      
system.ruby.network.routers6.msg_count.Writeback_Data::1       910481                      
system.ruby.network.routers6.msg_count.Writeback_Control::0      2299867                      
system.ruby.network.routers6.msg_bytes.Control::0     73499392                      
system.ruby.network.routers6.msg_bytes.Request_Control::2      7350232                      
system.ruby.network.routers6.msg_bytes.Response_Data::1    818161200                      
system.ruby.network.routers6.msg_bytes.Response_Control::1     78010528                      
system.ruby.network.routers6.msg_bytes.Response_Control::2     43498368                      
system.ruby.network.routers6.msg_bytes.Writeback_Data::0    159411024                      
system.ruby.network.routers6.msg_bytes.Writeback_Data::1     65554632                      
system.ruby.network.routers6.msg_bytes.Writeback_Control::0     18398936                      
system.ruby.network.routers7.percent_links_utilized     0.266530                      
system.ruby.network.routers7.msg_count.Control::0      3743624                      
system.ruby.network.routers7.msg_count.Response_Data::1      5919602                      
system.ruby.network.routers7.msg_count.Response_Control::1      5229350                      
system.ruby.network.routers7.msg_bytes.Control::0     29948992                      
system.ruby.network.routers7.msg_bytes.Response_Data::1    426211344                      
system.ruby.network.routers7.msg_bytes.Response_Control::1     41834800                      
system.ruby.network.routers8.percent_links_utilized     0.169126                      
system.ruby.network.routers8.msg_count.Control::0      9187424                      
system.ruby.network.routers8.msg_count.Request_Control::2       920107                      
system.ruby.network.routers8.msg_count.Response_Data::1     11364952                      
system.ruby.network.routers8.msg_count.Response_Control::1      9751331                      
system.ruby.network.routers8.msg_count.Response_Control::2      5437296                      
system.ruby.network.routers8.msg_count.Writeback_Data::0      2214042                      
system.ruby.network.routers8.msg_count.Writeback_Data::1       910481                      
system.ruby.network.routers8.msg_count.Writeback_Control::0      2299867                      
system.ruby.network.routers8.msg_bytes.Control::0     73499392                      
system.ruby.network.routers8.msg_bytes.Request_Control::2      7360856                      
system.ruby.network.routers8.msg_bytes.Response_Data::1    818276544                      
system.ruby.network.routers8.msg_bytes.Response_Control::1     78010648                      
system.ruby.network.routers8.msg_bytes.Response_Control::2     43498368                      
system.ruby.network.routers8.msg_bytes.Writeback_Data::0    159411024                      
system.ruby.network.routers8.msg_bytes.Writeback_Data::1     65554632                      
system.ruby.network.routers8.msg_bytes.Writeback_Control::0     18398936                      
system.ruby.network.msg_count.Control        27562272                      
system.ruby.network.msg_count.Request_Control      2758993                      
system.ruby.network.msg_count.Response_Data     34094822                      
system.ruby.network.msg_count.Response_Control     45565881                      
system.ruby.network.msg_count.Writeback_Data      9373569                      
system.ruby.network.msg_count.Writeback_Control      6899601                      
system.ruby.network.msg_byte.Control        220498176                      
system.ruby.network.msg_byte.Request_Control     22071944                      
system.ruby.network.msg_byte.Response_Data   2454827184                      
system.ruby.network.msg_byte.Response_Control    364527048                      
system.ruby.network.msg_byte.Writeback_Data    674896968                      
system.ruby.network.msg_byte.Writeback_Control     55196808                      
system.ruby.network.routers0.throttle0.link_utilization            0                      
system.ruby.network.routers0.throttle1.link_utilization            0                      
system.ruby.network.routers1.throttle0.link_utilization            0                      
system.ruby.network.routers1.throttle1.link_utilization            0                      
system.ruby.network.routers2.throttle0.link_utilization            0                      
system.ruby.network.routers2.throttle1.link_utilization            0                      
system.ruby.network.routers3.throttle0.link_utilization     0.186875                      
system.ruby.network.routers3.throttle0.msg_count.Request_Control::2        19396                      
system.ruby.network.routers3.throttle0.msg_count.Response_Data::1      2182360                      
system.ruby.network.routers3.throttle0.msg_count.Response_Control::1      2162222                      
system.ruby.network.routers3.throttle0.msg_bytes.Request_Control::2       155168                      
system.ruby.network.routers3.throttle0.msg_bytes.Response_Data::1    157129920                      
system.ruby.network.routers3.throttle0.msg_bytes.Response_Control::1     17297776                      
system.ruby.network.routers3.throttle1.link_utilization     0.205457                      
system.ruby.network.routers3.throttle1.msg_count.Control::0      2182372                      
system.ruby.network.routers3.throttle1.msg_count.Response_Data::1           23                      
system.ruby.network.routers3.throttle1.msg_count.Response_Control::1          207                      
system.ruby.network.routers3.throttle1.msg_count.Response_Control::2      2182370                      
system.ruby.network.routers3.throttle1.msg_count.Writeback_Data::0      2161608                      
system.ruby.network.routers3.throttle1.msg_count.Writeback_Data::1        19177                      
system.ruby.network.routers3.throttle1.msg_count.Writeback_Control::0          589                      
system.ruby.network.routers3.throttle1.msg_bytes.Control::0     17458976                      
system.ruby.network.routers3.throttle1.msg_bytes.Response_Data::1         1656                      
system.ruby.network.routers3.throttle1.msg_bytes.Response_Control::1         1656                      
system.ruby.network.routers3.throttle1.msg_bytes.Response_Control::2     17458960                      
system.ruby.network.routers3.throttle1.msg_bytes.Writeback_Data::0    155635776                      
system.ruby.network.routers3.throttle1.msg_bytes.Writeback_Data::1      1380744                      
system.ruby.network.routers3.throttle1.msg_bytes.Writeback_Control::0         4712                      
system.ruby.network.routers4.throttle0.link_utilization     0.139279                      
system.ruby.network.routers4.throttle0.msg_count.Request_Control::2       387561                      
system.ruby.network.routers4.throttle0.msg_count.Response_Data::1      1627106                      
system.ruby.network.routers4.throttle0.msg_count.Response_Control::1      1233203                      
system.ruby.network.routers4.throttle0.msg_bytes.Request_Control::2      3100488                      
system.ruby.network.routers4.throttle0.msg_bytes.Response_Data::1    117151632                      
system.ruby.network.routers4.throttle0.msg_bytes.Response_Control::1      9865624                      
system.ruby.network.routers4.throttle1.link_utilization     0.070344                      
system.ruby.network.routers4.throttle1.msg_count.Control::0      1627107                      
system.ruby.network.routers4.throttle1.msg_count.Response_Data::1         1177                      
system.ruby.network.routers4.throttle1.msg_count.Response_Control::1         1695                      
system.ruby.network.routers4.throttle1.msg_count.Response_Control::2      1624011                      
system.ruby.network.routers4.throttle1.msg_count.Writeback_Data::0        31312                      
system.ruby.network.routers4.throttle1.msg_count.Writeback_Data::1       385276                      
system.ruby.network.routers4.throttle1.msg_count.Writeback_Control::0      1201889                      
system.ruby.network.routers4.throttle1.msg_bytes.Control::0     13016856                      
system.ruby.network.routers4.throttle1.msg_bytes.Response_Data::1        84744                      
system.ruby.network.routers4.throttle1.msg_bytes.Response_Control::1        13560                      
system.ruby.network.routers4.throttle1.msg_bytes.Response_Control::2     12992088                      
system.ruby.network.routers4.throttle1.msg_bytes.Writeback_Data::0      2254464                      
system.ruby.network.routers4.throttle1.msg_bytes.Writeback_Data::1     27739872                      
system.ruby.network.routers4.throttle1.msg_bytes.Writeback_Control::0      9615112                      
system.ruby.network.routers5.throttle0.link_utilization     0.139929                      
system.ruby.network.routers5.throttle0.msg_count.Request_Control::2       513150                      
system.ruby.network.routers5.throttle0.msg_count.Response_Data::1      1634320                      
system.ruby.network.routers5.throttle0.msg_count.Response_Control::1      1118513                      
system.ruby.network.routers5.throttle0.msg_bytes.Request_Control::2      4105200                      
system.ruby.network.routers5.throttle0.msg_bytes.Response_Data::1    117671040                      
system.ruby.network.routers5.throttle0.msg_bytes.Response_Control::1      8948104                      
system.ruby.network.routers5.throttle1.link_utilization     0.078187                      
system.ruby.network.routers5.throttle1.msg_count.Control::0      1634321                      
system.ruby.network.routers5.throttle1.msg_count.Response_Data::1         1932                      
system.ruby.network.routers5.throttle1.msg_count.Response_Control::1         6156                      
system.ruby.network.routers5.throttle1.msg_count.Response_Control::2      1630915                      
system.ruby.network.routers5.throttle1.msg_count.Writeback_Data::0        21122                      
system.ruby.network.routers5.throttle1.msg_count.Writeback_Data::1       506028                      
system.ruby.network.routers5.throttle1.msg_count.Writeback_Control::0      1097389                      
system.ruby.network.routers5.throttle1.msg_bytes.Control::0     13074568                      
system.ruby.network.routers5.throttle1.msg_bytes.Response_Data::1       139104                      
system.ruby.network.routers5.throttle1.msg_bytes.Response_Control::1        49248                      
system.ruby.network.routers5.throttle1.msg_bytes.Response_Control::2     13047320                      
system.ruby.network.routers5.throttle1.msg_bytes.Writeback_Data::0      1520784                      
system.ruby.network.routers5.throttle1.msg_bytes.Writeback_Data::1     36434016                      
system.ruby.network.routers5.throttle1.msg_bytes.Writeback_Control::0      8779112                      
system.ruby.network.routers6.throttle0.link_utilization     0.674094                      
system.ruby.network.routers6.throttle0.msg_count.Control::0      5443800                      
system.ruby.network.routers6.throttle0.msg_count.Response_Data::1      3745188                      
system.ruby.network.routers6.throttle0.msg_count.Response_Control::1      3710707                      
system.ruby.network.routers6.throttle0.msg_count.Response_Control::2      5437296                      
system.ruby.network.routers6.throttle0.msg_count.Writeback_Data::0      2214042                      
system.ruby.network.routers6.throttle0.msg_count.Writeback_Data::1       910481                      
system.ruby.network.routers6.throttle0.msg_count.Writeback_Control::0      2299867                      
system.ruby.network.routers6.throttle0.msg_bytes.Control::0     43550400                      
system.ruby.network.routers6.throttle0.msg_bytes.Response_Data::1    269653536                      
system.ruby.network.routers6.throttle0.msg_bytes.Response_Control::1     29685656                      
system.ruby.network.routers6.throttle0.msg_bytes.Response_Control::2     43498368                      
system.ruby.network.routers6.throttle0.msg_bytes.Writeback_Data::0    159411024                      
system.ruby.network.routers6.throttle0.msg_bytes.Writeback_Data::1     65554632                      
system.ruby.network.routers6.throttle0.msg_bytes.Writeback_Control::0     18398936                      
system.ruby.network.routers6.throttle1.link_utilization     0.678781                      
system.ruby.network.routers6.throttle1.msg_count.Control::0      3743624                      
system.ruby.network.routers6.throttle1.msg_count.Request_Control::2       918779                      
system.ruby.network.routers6.throttle1.msg_count.Response_Data::1      7618162                      
system.ruby.network.routers6.throttle1.msg_count.Response_Control::1      6040609                      
system.ruby.network.routers6.throttle1.msg_bytes.Control::0     29948992                      
system.ruby.network.routers6.throttle1.msg_bytes.Request_Control::2      7350232                      
system.ruby.network.routers6.throttle1.msg_bytes.Response_Data::1    548507664                      
system.ruby.network.routers6.throttle1.msg_bytes.Response_Control::1     48324872                      
system.ruby.network.routers7.throttle0.link_utilization     0.212833                      
system.ruby.network.routers7.throttle0.msg_count.Control::0      3743624                      
system.ruby.network.routers7.throttle0.msg_count.Response_Data::1      2175978                      
system.ruby.network.routers7.throttle0.msg_count.Response_Control::1      1526686                      
system.ruby.network.routers7.throttle0.msg_bytes.Control::0     29948992                      
system.ruby.network.routers7.throttle0.msg_bytes.Response_Data::1    156670416                      
system.ruby.network.routers7.throttle0.msg_bytes.Response_Control::1     12213488                      
system.ruby.network.routers7.throttle1.link_utilization     0.320226                      
system.ruby.network.routers7.throttle1.msg_count.Response_Data::1      3743624                      
system.ruby.network.routers7.throttle1.msg_count.Response_Control::1      3702664                      
system.ruby.network.routers7.throttle1.msg_bytes.Response_Data::1    269540928                      
system.ruby.network.routers7.throttle1.msg_bytes.Response_Control::1     29621312                      
system.ruby.network.routers8.throttle0.link_utilization            0                      
system.ruby.network.routers8.throttle1.link_utilization            0                      
system.ruby.network.routers8.throttle2.link_utilization            0                      
system.ruby.network.routers8.throttle3.link_utilization     0.186875                      
system.ruby.network.routers8.throttle3.msg_count.Request_Control::2        19396                      
system.ruby.network.routers8.throttle3.msg_count.Response_Data::1      2182360                      
system.ruby.network.routers8.throttle3.msg_count.Response_Control::1      2162222                      
system.ruby.network.routers8.throttle3.msg_bytes.Request_Control::2       155168                      
system.ruby.network.routers8.throttle3.msg_bytes.Response_Data::1    157129920                      
system.ruby.network.routers8.throttle3.msg_bytes.Response_Control::1     17297776                      
system.ruby.network.routers8.throttle4.link_utilization     0.139279                      
system.ruby.network.routers8.throttle4.msg_count.Request_Control::2       387561                      
system.ruby.network.routers8.throttle4.msg_count.Response_Data::1      1627106                      
system.ruby.network.routers8.throttle4.msg_count.Response_Control::1      1233203                      
system.ruby.network.routers8.throttle4.msg_bytes.Request_Control::2      3100488                      
system.ruby.network.routers8.throttle4.msg_bytes.Response_Data::1    117151632                      
system.ruby.network.routers8.throttle4.msg_bytes.Response_Control::1      9865624                      
system.ruby.network.routers8.throttle5.link_utilization     0.139929                      
system.ruby.network.routers8.throttle5.msg_count.Request_Control::2       513150                      
system.ruby.network.routers8.throttle5.msg_count.Response_Data::1      1634320                      
system.ruby.network.routers8.throttle5.msg_count.Response_Control::1      1118513                      
system.ruby.network.routers8.throttle5.msg_bytes.Request_Control::2      4105200                      
system.ruby.network.routers8.throttle5.msg_bytes.Response_Data::1    117671040                      
system.ruby.network.routers8.throttle5.msg_bytes.Response_Control::1      8948104                      
system.ruby.network.routers8.throttle6.link_utilization     0.674094                      
system.ruby.network.routers8.throttle6.msg_count.Control::0      5443800                      
system.ruby.network.routers8.throttle6.msg_count.Response_Data::1      3745188                      
system.ruby.network.routers8.throttle6.msg_count.Response_Control::1      3710707                      
system.ruby.network.routers8.throttle6.msg_count.Response_Control::2      5437296                      
system.ruby.network.routers8.throttle6.msg_count.Writeback_Data::0      2214042                      
system.ruby.network.routers8.throttle6.msg_count.Writeback_Data::1       910481                      
system.ruby.network.routers8.throttle6.msg_count.Writeback_Control::0      2299867                      
system.ruby.network.routers8.throttle6.msg_bytes.Control::0     43550400                      
system.ruby.network.routers8.throttle6.msg_bytes.Response_Data::1    269653536                      
system.ruby.network.routers8.throttle6.msg_bytes.Response_Control::1     29685656                      
system.ruby.network.routers8.throttle6.msg_bytes.Response_Control::2     43498368                      
system.ruby.network.routers8.throttle6.msg_bytes.Writeback_Data::0    159411024                      
system.ruby.network.routers8.throttle6.msg_bytes.Writeback_Data::1     65554632                      
system.ruby.network.routers8.throttle6.msg_bytes.Writeback_Control::0     18398936                      
system.ruby.network.routers8.throttle7.link_utilization     0.212833                      
system.ruby.network.routers8.throttle7.msg_count.Control::0      3743624                      
system.ruby.network.routers8.throttle7.msg_count.Response_Data::1      2175978                      
system.ruby.network.routers8.throttle7.msg_count.Response_Control::1      1526686                      
system.ruby.network.routers8.throttle7.msg_bytes.Control::0     29948992                      
system.ruby.network.routers8.throttle7.msg_bytes.Response_Data::1    156670416                      
system.ruby.network.routers8.throttle7.msg_bytes.Response_Control::1     12213488                      
system.ruby.delayVCHist.vnet_0::bucket_size           16                       # delay histogram for vnet_0
system.ruby.delayVCHist.vnet_0::max_bucket          159                       # delay histogram for vnet_0
system.ruby.delayVCHist.vnet_0::samples      15395005                       # delay histogram for vnet_0
system.ruby.delayVCHist.vnet_0::mean         1.185046                       # delay histogram for vnet_0
system.ruby.delayVCHist.vnet_0::stdev        2.836240                       # delay histogram for vnet_0
system.ruby.delayVCHist.vnet_0           |    15393310     99.99%     99.99% |        1657      0.01%    100.00% |          30      0.00%    100.00% |           7      0.00%    100.00% |           0      0.00%    100.00% |           1      0.00%    100.00% |           0      0.00%    100.00% |           0      0.00%    100.00% |           0      0.00%    100.00% |           0      0.00%    100.00% # delay histogram for vnet_0
system.ruby.delayVCHist.vnet_0::total        15395005                       # delay histogram for vnet_0
system.ruby.delayVCHist.vnet_1::bucket_size            2                       # delay histogram for vnet_1
system.ruby.delayVCHist.vnet_1::max_bucket           19                       # delay histogram for vnet_1
system.ruby.delayVCHist.vnet_1::samples      24115562                       # delay histogram for vnet_1
system.ruby.delayVCHist.vnet_1::mean         0.014450                       # delay histogram for vnet_1
system.ruby.delayVCHist.vnet_1::stdev        0.283719                       # delay histogram for vnet_1
system.ruby.delayVCHist.vnet_1           |    24036960     99.67%     99.67% |       28110      0.12%     99.79% |       20313      0.08%     99.87% |       15545      0.06%     99.94% |       14358      0.06%    100.00% |         254      0.00%    100.00% |           7      0.00%    100.00% |           3      0.00%    100.00% |           9      0.00%    100.00% |           3      0.00%    100.00% # delay histogram for vnet_1
system.ruby.delayVCHist.vnet_1::total        24115562                       # delay histogram for vnet_1
system.ruby.delayVCHist.vnet_2::bucket_size            2                       # delay histogram for vnet_2
system.ruby.delayVCHist.vnet_2::max_bucket           19                       # delay histogram for vnet_2
system.ruby.delayVCHist.vnet_2::samples        992860                       # delay histogram for vnet_2
system.ruby.delayVCHist.vnet_2::mean         0.044953                       # delay histogram for vnet_2
system.ruby.delayVCHist.vnet_2::stdev        0.471396                       # delay histogram for vnet_2
system.ruby.delayVCHist.vnet_2           |      983841     99.09%     99.09% |         165      0.02%     99.11% |        8850      0.89%    100.00% |           1      0.00%    100.00% |           0      0.00%    100.00% |           0      0.00%    100.00% |           0      0.00%    100.00% |           3      0.00%    100.00% |           0      0.00%    100.00% |           0      0.00%    100.00% # delay histogram for vnet_2
system.ruby.delayVCHist.vnet_2::total          992860                       # delay histogram for vnet_2
system.ruby.LD.latency_hist::bucket_size           16                      
system.ruby.LD.latency_hist::max_bucket           159                      
system.ruby.LD.latency_hist::samples        441128305                      
system.ruby.LD.latency_hist::mean            1.303727                      
system.ruby.LD.latency_hist::gmean           1.028071                      
system.ruby.LD.latency_hist::stdev           3.948080                      
system.ruby.LD.latency_hist              |   437878196     99.26%     99.26% |     1682981      0.38%     99.64% |        2796      0.00%     99.65% |     1406323      0.32%     99.96% |      118061      0.03%     99.99% |       39356      0.01%    100.00% |         572      0.00%    100.00% |          14      0.00%    100.00% |           5      0.00%    100.00% |           1      0.00%    100.00%
system.ruby.LD.latency_hist::total          441128305                      
system.ruby.LD.hit_latency_hist::bucket_size           16                      
system.ruby.LD.hit_latency_hist::max_bucket          159                      
system.ruby.LD.hit_latency_hist::samples    441128305                      
system.ruby.LD.hit_latency_hist::mean        1.303727                      
system.ruby.LD.hit_latency_hist::gmean       1.028071                      
system.ruby.LD.hit_latency_hist::stdev       3.948080                      
system.ruby.LD.hit_latency_hist          |   437878196     99.26%     99.26% |     1682981      0.38%     99.64% |        2796      0.00%     99.65% |     1406323      0.32%     99.96% |      118061      0.03%     99.99% |       39356      0.01%    100.00% |         572      0.00%    100.00% |          14      0.00%    100.00% |           5      0.00%    100.00% |           1      0.00%    100.00%
system.ruby.LD.hit_latency_hist::total      441128305                      
system.ruby.ST.latency_hist::bucket_size           16                      
system.ruby.ST.latency_hist::max_bucket           159                      
system.ruby.ST.latency_hist::samples        228241590                      
system.ruby.ST.latency_hist::mean            1.837272                      
system.ruby.ST.latency_hist::gmean           1.043786                      
system.ruby.ST.latency_hist::stdev           8.537468                      
system.ruby.ST.latency_hist              |   226058570     99.04%     99.04% |        5459      0.00%     99.05% |           4      0.00%     99.05% |       10939      0.00%     99.05% |       51053      0.02%     99.07% |     2083804      0.91%     99.99% |       31669      0.01%    100.00% |          90      0.00%    100.00% |           1      0.00%    100.00% |           1      0.00%    100.00%
system.ruby.ST.latency_hist::total          228241590                      
system.ruby.ST.hit_latency_hist::bucket_size           16                      
system.ruby.ST.hit_latency_hist::max_bucket          159                      
system.ruby.ST.hit_latency_hist::samples    228241590                      
system.ruby.ST.hit_latency_hist::mean        1.837272                      
system.ruby.ST.hit_latency_hist::gmean       1.043786                      
system.ruby.ST.hit_latency_hist::stdev       8.537468                      
system.ruby.ST.hit_latency_hist          |   226058570     99.04%     99.04% |        5459      0.00%     99.05% |           4      0.00%     99.05% |       10939      0.00%     99.05% |       51053      0.02%     99.07% |     2083804      0.91%     99.99% |       31669      0.01%    100.00% |          90      0.00%    100.00% |           1      0.00%    100.00% |           1      0.00%    100.00%
system.ruby.ST.hit_latency_hist::total      228241590                      
system.ruby.IFETCH.latency_hist::bucket_size           16                      
system.ruby.IFETCH.latency_hist::max_bucket          159                      
system.ruby.IFETCH.latency_hist::samples   2259573433                      
system.ruby.IFETCH.latency_hist::mean        1.000134                      
system.ruby.IFETCH.latency_hist::gmean       1.000015                      
system.ruby.IFETCH.latency_hist::stdev       0.072258                      
system.ruby.IFETCH.latency_hist          |  2259563318    100.00%    100.00% |        8346      0.00%    100.00% |          32      0.00%    100.00% |        1349      0.00%    100.00% |         210      0.00%    100.00% |         175      0.00%    100.00% |           2      0.00%    100.00% |           1      0.00%    100.00% |           0      0.00%    100.00% |           0      0.00%    100.00%
system.ruby.IFETCH.latency_hist::total     2259573433                      
system.ruby.IFETCH.hit_latency_hist::bucket_size           16                      
system.ruby.IFETCH.hit_latency_hist::max_bucket          159                      
system.ruby.IFETCH.hit_latency_hist::samples   2259573433                      
system.ruby.IFETCH.hit_latency_hist::mean     1.000134                      
system.ruby.IFETCH.hit_latency_hist::gmean     1.000015                      
system.ruby.IFETCH.hit_latency_hist::stdev     0.072258                      
system.ruby.IFETCH.hit_latency_hist      |  2259563318    100.00%    100.00% |        8346      0.00%    100.00% |          32      0.00%    100.00% |        1349      0.00%    100.00% |         210      0.00%    100.00% |         175      0.00%    100.00% |           2      0.00%    100.00% |           1      0.00%    100.00% |           0      0.00%    100.00% |           0      0.00%    100.00%
system.ruby.IFETCH.hit_latency_hist::total   2259573433                      
system.ruby.RMW_Read.latency_hist::bucket_size           16                      
system.ruby.RMW_Read.latency_hist::max_bucket          159                      
system.ruby.RMW_Read.latency_hist::samples          454                      
system.ruby.RMW_Read.latency_hist::mean      2.557269                      
system.ruby.RMW_Read.latency_hist::gmean     1.115828                      
system.ruby.RMW_Read.latency_hist::stdev     9.988295                      
system.ruby.RMW_Read.latency_hist        |         442     97.36%     97.36% |           3      0.66%     98.02% |           0      0.00%     98.02% |           5      1.10%     99.12% |           2      0.44%     99.56% |           2      0.44%    100.00% |           0      0.00%    100.00% |           0      0.00%    100.00% |           0      0.00%    100.00% |           0      0.00%    100.00%
system.ruby.RMW_Read.latency_hist::total          454                      
system.ruby.RMW_Read.hit_latency_hist::bucket_size           16                      
system.ruby.RMW_Read.hit_latency_hist::max_bucket          159                      
system.ruby.RMW_Read.hit_latency_hist::samples          454                      
system.ruby.RMW_Read.hit_latency_hist::mean     2.557269                      
system.ruby.RMW_Read.hit_latency_hist::gmean     1.115828                      
system.ruby.RMW_Read.hit_latency_hist::stdev     9.988295                      
system.ruby.RMW_Read.hit_latency_hist    |         442     97.36%     97.36% |           3      0.66%     98.02% |           0      0.00%     98.02% |           5      1.10%     99.12% |           2      0.44%     99.56% |           2      0.44%    100.00% |           0      0.00%    100.00% |           0      0.00%    100.00% |           0      0.00%    100.00% |           0      0.00%    100.00%
system.ruby.RMW_Read.hit_latency_hist::total          454                      
system.ruby.Locked_RMW_Read.latency_hist::bucket_size           16                      
system.ruby.Locked_RMW_Read.latency_hist::max_bucket          159                      
system.ruby.Locked_RMW_Read.latency_hist::samples     50718283                      
system.ruby.Locked_RMW_Read.latency_hist::mean     1.000271                      
system.ruby.Locked_RMW_Read.latency_hist::gmean     1.000035                      
system.ruby.Locked_RMW_Read.latency_hist::stdev     0.086831                      
system.ruby.Locked_RMW_Read.latency_hist |    50717739    100.00%    100.00% |         531      0.00%    100.00% |           0      0.00%    100.00% |           5      0.00%    100.00% |           2      0.00%    100.00% |           5      0.00%    100.00% |           1      0.00%    100.00% |           0      0.00%    100.00% |           0      0.00%    100.00% |           0      0.00%    100.00%
system.ruby.Locked_RMW_Read.latency_hist::total     50718283                      
system.ruby.Locked_RMW_Read.hit_latency_hist::bucket_size           16                      
system.ruby.Locked_RMW_Read.hit_latency_hist::max_bucket          159                      
system.ruby.Locked_RMW_Read.hit_latency_hist::samples     50718283                      
system.ruby.Locked_RMW_Read.hit_latency_hist::mean     1.000271                      
system.ruby.Locked_RMW_Read.hit_latency_hist::gmean     1.000035                      
system.ruby.Locked_RMW_Read.hit_latency_hist::stdev     0.086831                      
system.ruby.Locked_RMW_Read.hit_latency_hist |    50717739    100.00%    100.00% |         531      0.00%    100.00% |           0      0.00%    100.00% |           5      0.00%    100.00% |           2      0.00%    100.00% |           5      0.00%    100.00% |           1      0.00%    100.00% |           0      0.00%    100.00% |           0      0.00%    100.00% |           0      0.00%    100.00%
system.ruby.Locked_RMW_Read.hit_latency_hist::total     50718283                      
system.ruby.Locked_RMW_Write.latency_hist::bucket_size            1                      
system.ruby.Locked_RMW_Write.latency_hist::max_bucket            9                      
system.ruby.Locked_RMW_Write.latency_hist::samples     50718283                      
system.ruby.Locked_RMW_Write.latency_hist::mean            1                      
system.ruby.Locked_RMW_Write.latency_hist::gmean            1                      
system.ruby.Locked_RMW_Write.latency_hist |           0      0.00%      0.00% |    50718283    100.00%    100.00% |           0      0.00%    100.00% |           0      0.00%    100.00% |           0      0.00%    100.00% |           0      0.00%    100.00% |           0      0.00%    100.00% |           0      0.00%    100.00% |           0      0.00%    100.00% |           0      0.00%    100.00%
system.ruby.Locked_RMW_Write.latency_hist::total     50718283                      
system.ruby.Locked_RMW_Write.hit_latency_hist::bucket_size            1                      
system.ruby.Locked_RMW_Write.hit_latency_hist::max_bucket            9                      
system.ruby.Locked_RMW_Write.hit_latency_hist::samples     50718283                      
system.ruby.Locked_RMW_Write.hit_latency_hist::mean            1                      
system.ruby.Locked_RMW_Write.hit_latency_hist::gmean            1                      
system.ruby.Locked_RMW_Write.hit_latency_hist |           0      0.00%      0.00% |    50718283    100.00%    100.00% |           0      0.00%    100.00% |           0      0.00%    100.00% |           0      0.00%    100.00% |           0      0.00%    100.00% |           0      0.00%    100.00% |           0      0.00%    100.00% |           0      0.00%    100.00% |           0      0.00%    100.00%
system.ruby.Locked_RMW_Write.hit_latency_hist::total     50718283                      
system.ruby.Directory_Controller.Fetch        3743624      0.00%      0.00%
system.ruby.Directory_Controller.Data         2175978      0.00%      0.00%
system.ruby.Directory_Controller.Memory_Data      3743624      0.00%      0.00%
system.ruby.Directory_Controller.Memory_Ack      2175978      0.00%      0.00%
system.ruby.Directory_Controller.CleanReplacement      1526686      0.00%      0.00%
system.ruby.Directory_Controller.I.Fetch      3743624      0.00%      0.00%
system.ruby.Directory_Controller.M.Data       2175978      0.00%      0.00%
system.ruby.Directory_Controller.M.CleanReplacement      1526686      0.00%      0.00%
system.ruby.Directory_Controller.IM.Memory_Data      3743624      0.00%      0.00%
system.ruby.Directory_Controller.MI.Memory_Ack      2175978      0.00%      0.00%
system.ruby.L0Cache_Controller.Load      |   384185011     87.09%     87.09% |    28471647      6.45%     93.55% |    28471647      6.45%    100.00%
system.ruby.L0Cache_Controller.Load::total    441128305                      
system.ruby.L0Cache_Controller.Ifetch    |  2110562053     93.41%     93.41% |    74505690      3.30%     96.70% |    74505690      3.30%    100.00%
system.ruby.L0Cache_Controller.Ifetch::total   2259573433                      
system.ruby.L0Cache_Controller.Store     |   329354834     99.90%     99.90% |      161888      0.05%     99.95% |      161888      0.05%    100.00%
system.ruby.L0Cache_Controller.Store::total    329678610                      
system.ruby.L0Cache_Controller.Inv       |       10035     13.79%     13.79% |       33736     46.37%     60.16% |       28982     39.84%    100.00%
system.ruby.L0Cache_Controller.Inv::total        72753                      
system.ruby.L0Cache_Controller.L0_Replacement |     2171748     37.97%     37.97% |     1775586     31.04%     69.01% |     1772340     30.99%    100.00%
system.ruby.L0Cache_Controller.L0_Replacement::total      5719674                      
system.ruby.L0Cache_Controller.Data      |          21      0.23%      0.23% |        4629     49.81%     50.04% |        4643     49.96%    100.00%
system.ruby.L0Cache_Controller.Data::total         9293                      
system.ruby.L0Cache_Controller.Data_Exclusive |     2182474     37.74%     37.74% |     1803985     31.20%     68.94% |     1795710     31.06%    100.00%
system.ruby.L0Cache_Controller.Data_Exclusive::total      5782169                      
system.ruby.L0Cache_Controller.NP.Load   |        2812      0.08%      0.08% |     1801314     50.07%     50.15% |     1793563     49.85%    100.00%
system.ruby.L0Cache_Controller.NP.Load::total      3597689                      
system.ruby.L0Cache_Controller.NP.Ifetch |        6660     65.41%     65.41% |        1977     19.42%     84.83% |        1545     15.17%    100.00%
system.ruby.L0Cache_Controller.NP.Ifetch::total        10182                      
system.ruby.L0Cache_Controller.NP.Store  |     2173011     99.52%     99.52% |        5322      0.24%     99.76% |        5244      0.24%    100.00%
system.ruby.L0Cache_Controller.NP.Store::total      2183577                      
system.ruby.L0Cache_Controller.NP.Inv    |           0      0.00%      0.00% |        1217     55.52%     55.52% |         975     44.48%    100.00%
system.ruby.L0Cache_Controller.NP.Inv::total         2192                      
system.ruby.L0Cache_Controller.S.Load    |         380      0.01%      0.01% |     3366483     50.39%     50.39% |     3314621     49.61%    100.00%
system.ruby.L0Cache_Controller.S.Load::total      6681484                      
system.ruby.L0Cache_Controller.S.Ifetch  |          48      0.00%      0.00% |    74503281     50.00%     50.00% |    74503797     50.00%    100.00%
system.ruby.L0Cache_Controller.S.Ifetch::total    149007126                      
system.ruby.L0Cache_Controller.S.Store   |          12     85.71%     85.71% |           1      7.14%     92.86% |           1      7.14%    100.00%
system.ruby.L0Cache_Controller.S.Store::total           14                      
system.ruby.L0Cache_Controller.S.Inv     |           3      0.04%      0.04% |        3347     47.73%     47.78% |        3662     52.22%    100.00%
system.ruby.L0Cache_Controller.S.Inv::total         7012                      
system.ruby.L0Cache_Controller.S.L0_Replacement |           4      0.18%      0.18% |        1276     56.59%     56.76% |         975     43.24%    100.00%
system.ruby.L0Cache_Controller.S.L0_Replacement::total         2255                      
system.ruby.L0Cache_Controller.E.Load    |    66283166     58.77%     58.77% |    23223234     20.59%     79.36% |    23282822     20.64%    100.00%
system.ruby.L0Cache_Controller.E.Load::total    112789222                      
system.ruby.L0Cache_Controller.E.Ifetch  |  2110555345    100.00%    100.00% |         432      0.00%    100.00% |         348      0.00%    100.00%
system.ruby.L0Cache_Controller.E.Ifetch::total   2110556125                      
[...]
system.ruby.L0Cache_Controller.SM.Data_Exclusive |          12     85.71%     85.71% |           1      7.14%     92.86% |           1      7.14%    100.00%
system.ruby.L0Cache_Controller.SM.Data_Exclusive::total           14                      
system.ruby.L1Cache_Controller.Load      |        9472      0.26%      0.26% |     1803291     49.98%     50.24% |     1795108     49.76%    100.00%
system.ruby.L1Cache_Controller.Load::total      3607871                      
system.ruby.L1Cache_Controller.Store     |     2173023     99.52%     99.52% |        5323      0.24%     99.76% |        5245      0.24%    100.00%
system.ruby.L1Cache_Controller.Store::total      2183591                      
system.ruby.L1Cache_Controller.WriteBack |     2171744     37.98%     37.98% |     1774310     31.03%     69.02% |     1771365     30.98%    100.00%
system.ruby.L1Cache_Controller.WriteBack::total      5717419                      
system.ruby.L1Cache_Controller.L0_DataAck |        3710     74.02%     74.02% |         692     13.81%     87.83% |         610     12.17%    100.00%
system.ruby.L1Cache_Controller.L0_DataAck::total         5012                      
system.ruby.L1Cache_Controller.Inv       |       19384      2.11%      2.11% |      386971     42.13%     44.24% |      512184     55.76%    100.00%
system.ruby.L1Cache_Controller.Inv::total       918539                      
system.ruby.L1Cache_Controller.L0_Invalidate_Own |       18576     14.54%     14.54% |       64098     50.16%     64.69% |       45118     35.31%    100.00%
system.ruby.L1Cache_Controller.L0_Invalidate_Own::total       127792                      
system.ruby.L1Cache_Controller.L0_Invalidate_Else |        1494      8.43%      8.43% |        3374     19.05%     27.48% |       12846     72.52%    100.00%
system.ruby.L1Cache_Controller.L0_Invalidate_Else::total        17714                      
system.ruby.L1Cache_Controller.L1_Replacement |     2162197     47.81%     47.81% |     1237524     27.36%     75.17% |     1123013     24.83%    100.00%
system.ruby.L1Cache_Controller.L1_Replacement::total      4522734                      
system.ruby.L1Cache_Controller.Fwd_GETX  |           1     25.00%     25.00% |           3     75.00%    100.00% |           0      0.00%    100.00%
system.ruby.L1Cache_Controller.Fwd_GETX::total            4                      
system.ruby.L1Cache_Controller.Fwd_GETS  |          11      0.70%      0.70% |         587     37.53%     38.24% |         966     61.76%    100.00%
system.ruby.L1Cache_Controller.Fwd_GETS::total         1564                      
system.ruby.L1Cache_Controller.Data_Exclusive |        9345      0.29%      0.29% |     1617715     49.74%     50.03% |     1625096     49.97%    100.00%
system.ruby.L1Cache_Controller.Data_Exclusive::total      3252156                      
system.ruby.L1Cache_Controller.DataS_fromL1 |          16      1.02%      1.02% |         974     62.28%     63.30% |         574     36.70%    100.00%
system.ruby.L1Cache_Controller.DataS_fromL1::total         1564                      
system.ruby.L1Cache_Controller.Data_all_Acks |     2172999     99.22%     99.22% |        8417      0.38%     99.61% |        8650      0.39%    100.00%
system.ruby.L1Cache_Controller.Data_all_Acks::total      2190066                      
system.ruby.L1Cache_Controller.L0_Ack    |        6325      9.34%      9.34% |       33044     48.78%     58.12% |       28372     41.88%    100.00%
system.ruby.L1Cache_Controller.L0_Ack::total        67741                      
system.ruby.L1Cache_Controller.Ack       |          13     86.67%     86.67% |           1      6.67%     93.33% |           1      6.67%    100.00%
system.ruby.L1Cache_Controller.Ack::total           15                      
system.ruby.L1Cache_Controller.Ack_all   |          12     85.71%     85.71% |           1      7.14%     92.86% |           1      7.14%    100.00%
system.ruby.L1Cache_Controller.Ack_all::total           14                      
system.ruby.L1Cache_Controller.WB_Ack    |     2162197     47.90%     47.90% |     1233201     27.32%     75.22% |     1118511     24.78%    100.00%
system.ruby.L1Cache_Controller.WB_Ack::total      4513909                      
system.ruby.L1Cache_Controller.NP.Load   |        9363      0.29%      0.29% |     1621785     49.74%     50.03% |     1629076     49.97%    100.00%
system.ruby.L1Cache_Controller.NP.Load::total      3260224                      
system.ruby.L1Cache_Controller.NP.Store  |     2172997     99.52%     99.52% |        5321      0.24%     99.76% |        5244      0.24%    100.00%
system.ruby.L1Cache_Controller.NP.Store::total      2183562                      
system.ruby.L1Cache_Controller.NP.Inv    |           0      0.00%      0.00% |        1065     52.93%     52.93% |         947     47.07%    100.00%
system.ruby.L1Cache_Controller.NP.Inv::total         2012                      
system.ruby.L1Cache_Controller.I.L1_Replacement |           0      0.00%      0.00% |           2    100.00%    100.00% |           0      0.00%    100.00%
system.ruby.L1Cache_Controller.I.L1_Replacement::total            2                      
system.ruby.L1Cache_Controller.S.Load    |           1    100.00%    100.00% |           0      0.00%    100.00% |           0      0.00%    100.00%
system.ruby.L1Cache_Controller.S.Load::total            1                      
system.ruby.L1Cache_Controller.S.Store   |          12     85.71%     85.71% |           1      7.14%     92.86% |           1      7.14%    100.00%
system.ruby.L1Cache_Controller.S.Store::total           14                      
system.ruby.L1Cache_Controller.S.L0_Invalidate_Own |           0      0.00%      0.00% |        4318     49.64%     49.64% |        4381     50.36%    100.00%
system.ruby.L1Cache_Controller.S.L0_Invalidate_Own::total         8699                      
system.ruby.L1Cache_Controller.S.L0_Invalidate_Else |           3      0.59%      0.59% |         246     48.71%     49.31% |         256     50.69%    100.00%
system.ruby.L1Cache_Controller.S.L0_Invalidate_Else::total          505                      
system.ruby.L1Cache_Controller.SS.Load   |           2      0.16%      0.16% |         559     45.67%     45.83% |         663     54.17%    100.00%
system.ruby.L1Cache_Controller.SS.Load::total         1224                      
system.ruby.L1Cache_Controller.SS.Inv    |          12      1.84%      1.84% |         266     40.86%     42.70% |         373     57.30%    100.00%
system.ruby.L1Cache_Controller.SS.Inv::total          651                      
system.ruby.L1Cache_Controller.SS.L1_Replacement |           0      0.00%      0.00% |        4321     48.97%     48.97% |        4502     51.03%    100.00%
system.ruby.L1Cache_Controller.SS.L1_Replacement::total         8823                      
system.ruby.L1Cache_Controller.E.WriteBack |         847      0.03%      0.03% |     1588981     49.79%     49.82% |     1601490     50.18%    100.00%
system.ruby.L1Cache_Controller.E.WriteBack::total      3191318                      
system.ruby.L1Cache_Controller.E.L0_Invalidate_Own |        7669     14.47%     14.47% |       27343     51.60%     66.07% |       17979     33.93%    100.00%
system.ruby.L1Cache_Controller.E.L0_Invalidate_Own::total        52991                      
system.ruby.L1Cache_Controller.E.L0_Invalidate_Else |         218      3.21%      3.21% |         941     13.87%     17.08% |        5627     82.92%    100.00%
system.ruby.L1Cache_Controller.E.L0_Invalidate_Else::total         6786                      
system.ruby.L1Cache_Controller.EE.Load   |           2     66.67%     66.67% |           1     33.33%    100.00% |           0      0.00%    100.00%
system.ruby.L1Cache_Controller.EE.Load::total            3                      
system.ruby.L1Cache_Controller.EE.Inv    |         195      3.61%      3.61% |         364      6.75%     10.36% |        4836     89.64%    100.00%
system.ruby.L1Cache_Controller.EE.Inv::total         5395                      
system.ruby.L1Cache_Controller.EE.L1_Replacement |        6082     11.98%     11.98% |       26996     53.18%     65.17% |       17682     34.83%    100.00%
system.ruby.L1Cache_Controller.EE.L1_Replacement::total        50760                      
system.ruby.L1Cache_Controller.EE.Fwd_GETX |           1     50.00%     50.00% |           1     50.00%    100.00% |           0      0.00%    100.00%
system.ruby.L1Cache_Controller.EE.Fwd_GETX::total            2                      
system.ruby.L1Cache_Controller.EE.Fwd_GETS |           4      0.30%      0.30% |         575     42.88%     43.18% |         762     56.82%    100.00%
system.ruby.L1Cache_Controller.EE.Fwd_GETS::total         1341                      
system.ruby.L1Cache_Controller.M.WriteBack |     2170897     85.94%     85.94% |      185329      7.34%     93.28% |      169875      6.72%    100.00%
system.ruby.L1Cache_Controller.M.WriteBack::total      2526101                      
system.ruby.L1Cache_Controller.M.L0_Invalidate_Own |        1619     73.39%     73.39% |         388     17.59%     90.98% |         199      9.02%    100.00%
system.ruby.L1Cache_Controller.M.L0_Invalidate_Own::total         2206                      
system.ruby.L1Cache_Controller.M.L0_Invalidate_Else |         526     33.59%     33.59% |         500     31.93%     65.52% |         540     34.48%    100.00%
system.ruby.L1Cache_Controller.M.L0_Invalidate_Else::total         1566                      
system.ruby.L1Cache_Controller.MM.Load   |         104      0.03%      0.03% |      180946     52.23%     52.26% |      165369     47.74%    100.00%
system.ruby.L1Cache_Controller.MM.Load::total       346419                      
system.ruby.L1Cache_Controller.MM.Store  |          14     93.33%     93.33% |           1      6.67%    100.00% |           0      0.00%    100.00%
system.ruby.L1Cache_Controller.MM.Store::total           15                      
system.ruby.L1Cache_Controller.MM.Inv    |       19177      2.11%      2.11% |      385276     42.32%     44.42% |      506028     55.58%    100.00%
system.ruby.L1Cache_Controller.MM.Inv::total       910481                      
system.ruby.L1Cache_Controller.MM.L1_Replacement |     2156115     48.31%     48.31% |     1206205     27.03%     75.34% |     1100829     24.66%    100.00%
system.ruby.L1Cache_Controller.MM.L1_Replacement::total      4463149                      
system.ruby.L1Cache_Controller.MM.Fwd_GETX |           0      0.00%      0.00% |           2    100.00%    100.00% |           0      0.00%    100.00%
system.ruby.L1Cache_Controller.MM.Fwd_GETX::total            2                      
system.ruby.L1Cache_Controller.MM.Fwd_GETS |           7      3.14%      3.14% |          12      5.38%      8.52% |         204     91.48%    100.00%
system.ruby.L1Cache_Controller.MM.Fwd_GETS::total          223                      
system.ruby.L1Cache_Controller.IS.Data_Exclusive |        9345      0.29%      0.29% |     1617715     49.74%     50.03% |     1625096     49.97%    100.00%
system.ruby.L1Cache_Controller.IS.Data_Exclusive::total      3252156                      
system.ruby.L1Cache_Controller.IS.DataS_fromL1 |          16      1.02%      1.02% |         974     62.28%     63.30% |         574     36.70%    100.00%
system.ruby.L1Cache_Controller.IS.DataS_fromL1::total         1564                      
system.ruby.L1Cache_Controller.IS.Data_all_Acks |           2      0.03%      0.03% |        3096     47.60%     47.63% |        3406     52.37%    100.00%
system.ruby.L1Cache_Controller.IS.Data_all_Acks::total         6504                      
system.ruby.L1Cache_Controller.IM.Data_all_Acks |     2172997     99.52%     99.52% |        5321      0.24%     99.76% |        5244      0.24%    100.00%
system.ruby.L1Cache_Controller.IM.Data_all_Acks::total      2183562                      
system.ruby.L1Cache_Controller.SM.Ack    |          13     86.67%     86.67% |           1      6.67%     93.33% |           1      6.67%    100.00%
system.ruby.L1Cache_Controller.SM.Ack::total           15                      
system.ruby.L1Cache_Controller.SM.Ack_all |          12     85.71%     85.71% |           1      7.14%     92.86% |           1      7.14%    100.00%
system.ruby.L1Cache_Controller.SM.Ack_all::total           14                      
system.ruby.L1Cache_Controller.M_I.WB_Ack |     2162197     47.90%     47.90% |     1233201     27.32%     75.22% |     1118511     24.78%    100.00%
system.ruby.L1Cache_Controller.M_I.WB_Ack::total      4513909                      
system.ruby.L1Cache_Controller.S_IL0.L0_Invalidate_Own |           0      0.00%      0.00% |        4318     49.64%     49.64% |        4381     50.36%    100.00%
system.ruby.L1Cache_Controller.S_IL0.L0_Invalidate_Own::total         8699                      
system.ruby.L1Cache_Controller.S_IL0.L0_Invalidate_Else |           3      0.59%      0.59% |         246     48.71%     49.31% |         256     50.69%    100.00%
system.ruby.L1Cache_Controller.S_IL0.L0_Invalidate_Else::total          505                      
system.ruby.L1Cache_Controller.S_IL0.L0_Ack |           3      0.03%      0.03% |        4564     49.59%     49.62% |        4637     50.38%    100.00%
system.ruby.L1Cache_Controller.S_IL0.L0_Ack::total         9204                      
system.ruby.L1Cache_Controller.E_IL0.L0_DataAck |        1603     70.43%     70.43% |         347     15.25%     85.68% |         326     14.32%    100.00%
system.ruby.L1Cache_Controller.E_IL0.L0_DataAck::total         2276                      
system.ruby.L1Cache_Controller.E_IL0.L0_Invalidate_Own |        7669     14.47%     14.47% |       27343     51.60%     66.07% |       17979     33.93%    100.00%
system.ruby.L1Cache_Controller.E_IL0.L0_Invalidate_Own::total        52991                      
system.ruby.L1Cache_Controller.E_IL0.L0_Invalidate_Else |         218      3.21%      3.21% |         941     13.87%     17.08% |        5627     82.92%    100.00%
system.ruby.L1Cache_Controller.E_IL0.L0_Invalidate_Else::total         6786                      
system.ruby.L1Cache_Controller.E_IL0.L0_Ack |        6284     10.93%     10.93% |       27937     48.59%     59.51% |       23280     40.49%    100.00%
system.ruby.L1Cache_Controller.E_IL0.L0_Ack::total        57501                      
system.ruby.L1Cache_Controller.M_IL0.L0_DataAck |        2107     77.01%     77.01% |         345     12.61%     89.62% |         284     10.38%    100.00%
system.ruby.L1Cache_Controller.M_IL0.L0_DataAck::total         2736                      
system.ruby.L1Cache_Controller.M_IL0.L0_Invalidate_Own |        1619     73.39%     73.39% |         388     17.59%     90.98% |         199      9.02%    100.00%
system.ruby.L1Cache_Controller.M_IL0.L0_Invalidate_Own::total         2206                      
system.ruby.L1Cache_Controller.M_IL0.L0_Invalidate_Else |         526     33.59%     33.59% |         500     31.93%     65.52% |         540     34.48%    100.00%
system.ruby.L1Cache_Controller.M_IL0.L0_Invalidate_Else::total         1566                      
system.ruby.L1Cache_Controller.M_IL0.L0_Ack |          38      3.67%      3.67% |         543     52.41%     56.08% |         455     43.92%    100.00%
system.ruby.L1Cache_Controller.M_IL0.L0_Ack::total         1036                      
system.ruby.L2Cache_Controller.L1_GETS        3260324      0.00%      0.00%
system.ruby.L2Cache_Controller.L1_GETX        2183583      0.00%      0.00%
system.ruby.L2Cache_Controller.L1_UPGRADE           14      0.00%      0.00%
system.ruby.L2Cache_Controller.L1_PUTX        4513909      0.00%      0.00%
system.ruby.L2Cache_Controller.L2_Replacement      2152486      0.00%      0.00%
system.ruby.L2Cache_Controller.L2_Replacement_clean      1550178      0.00%      0.00%
system.ruby.L2Cache_Controller.Mem_Data       3743624      0.00%      0.00%
system.ruby.L2Cache_Controller.Mem_Ack        3702664      0.00%      0.00%
system.ruby.L2Cache_Controller.WB_Data          24865      0.00%      0.00%
system.ruby.L2Cache_Controller.WB_Data_clean       887180      0.00%      0.00%
system.ruby.L2Cache_Controller.Ack               1327      0.00%      0.00%
system.ruby.L2Cache_Controller.Ack_all           6716      0.00%      0.00%
system.ruby.L2Cache_Controller.Unblock           1564      0.00%      0.00%
system.ruby.L2Cache_Controller.Exclusive_Unblock      5435732      0.00%      0.00%
system.ruby.L2Cache_Controller.NP.L1_GETS      1566046      0.00%      0.00%
system.ruby.L2Cache_Controller.NP.L1_GETX      2177578      0.00%      0.00%
system.ruby.L2Cache_Controller.SS.L1_GETS         6436      0.00%      0.00%
system.ruby.L2Cache_Controller.SS.L1_UPGRADE           14      0.00%      0.00%
system.ruby.L2Cache_Controller.SS.L2_Replacement         1154      0.00%      0.00%
system.ruby.L2Cache_Controller.SS.L2_Replacement_clean          167      0.00%      0.00%
system.ruby.L2Cache_Controller.M.L1_GETS      1686144      0.00%      0.00%
system.ruby.L2Cache_Controller.M.L1_GETX         5980      0.00%      0.00%
system.ruby.L2Cache_Controller.M.L2_Replacement      2150815      0.00%      0.00%
system.ruby.L2Cache_Controller.M.L2_Replacement_clean       634652      0.00%      0.00%
system.ruby.L2Cache_Controller.MT.L1_GETS         1564      0.00%      0.00%
system.ruby.L2Cache_Controller.MT.L1_GETX            4      0.00%      0.00%
system.ruby.L2Cache_Controller.MT.L1_PUTX      4513909      0.00%      0.00%
system.ruby.L2Cache_Controller.MT.L2_Replacement          517      0.00%      0.00%
system.ruby.L2Cache_Controller.MT.L2_Replacement_clean       915359      0.00%      0.00%
system.ruby.L2Cache_Controller.M_I.L1_GETS           93      0.00%      0.00%
system.ruby.L2Cache_Controller.M_I.L1_GETX           20      0.00%      0.00%
system.ruby.L2Cache_Controller.M_I.Mem_Ack      3702664      0.00%      0.00%
system.ruby.L2Cache_Controller.MT_I.WB_Data           18      0.00%      0.00%
system.ruby.L2Cache_Controller.MT_I.WB_Data_clean           22      0.00%      0.00%
system.ruby.L2Cache_Controller.MT_I.Ack_all          477      0.00%      0.00%
system.ruby.L2Cache_Controller.MCT_I.WB_Data        23492      0.00%      0.00%
system.ruby.L2Cache_Controller.MCT_I.WB_Data_clean       886949      0.00%      0.00%
system.ruby.L2Cache_Controller.MCT_I.Ack_all         4918      0.00%      0.00%
system.ruby.L2Cache_Controller.I_I.Ack            169      0.00%      0.00%
system.ruby.L2Cache_Controller.I_I.Ack_all          167      0.00%      0.00%
system.ruby.L2Cache_Controller.S_I.Ack           1158      0.00%      0.00%
system.ruby.L2Cache_Controller.S_I.Ack_all         1154      0.00%      0.00%
system.ruby.L2Cache_Controller.ISS.L1_GETS           34      0.00%      0.00%
system.ruby.L2Cache_Controller.ISS.Mem_Data      1566012      0.00%      0.00%
system.ruby.L2Cache_Controller.IS.Mem_Data           34      0.00%      0.00%
system.ruby.L2Cache_Controller.IM.L1_GETX            1      0.00%      0.00%
system.ruby.L2Cache_Controller.IM.Mem_Data      2177578      0.00%      0.00%
system.ruby.L2Cache_Controller.SS_MB.Exclusive_Unblock           14      0.00%      0.00%
system.ruby.L2Cache_Controller.MT_MB.L1_GETS            4      0.00%      0.00%
system.ruby.L2Cache_Controller.MT_MB.Exclusive_Unblock      5435718      0.00%      0.00%
system.ruby.L2Cache_Controller.MT_IIB.L1_GETS            3      0.00%      0.00%
system.ruby.L2Cache_Controller.MT_IIB.WB_Data         1348      0.00%      0.00%
system.ruby.L2Cache_Controller.MT_IIB.WB_Data_clean          208      0.00%      0.00%
system.ruby.L2Cache_Controller.MT_IIB.Unblock            8      0.00%      0.00%
system.ruby.L2Cache_Controller.MT_IB.WB_Data            7      0.00%      0.00%
system.ruby.L2Cache_Controller.MT_IB.WB_Data_clean            1      0.00%      0.00%
system.ruby.L2Cache_Controller.MT_SB.Unblock         1556      0.00%      0.00%

---------- End Simulation Statistics   ----------
