
---------- Begin Simulation Statistics ----------
sim_seconds                                  0.242516                       # Number of seconds simulated
sim_ticks                                242515760000                       # Number of ticks simulated
final_tick                               242515760000                       # Number of ticks from beginning of simulation (restored from checkpoints and never reset)
sim_freq                                 1000000000000                       # Frequency of simulated ticks
host_inst_rate                                 140502                       # Simulator instruction rate (inst/s)
host_op_rate                                   370679                       # Simulator op (including micro ops) rate (op/s)
host_tick_rate                              215253637                       # Simulator tick rate (ticks/s)
host_mem_usage                                 801668                       # Number of bytes of host memory used
host_seconds                                  1126.65                       # Real time elapsed on the host
sim_insts                                   158296403                       # Number of instructions simulated
sim_ops                                     417626162                       # Number of ops (including micro ops) simulated
system.voltage_domain.voltage                       1                       # Voltage in Volts
system.clk_domain.clock                          1000                       # Clock period in ticks
system.mem_ctrls.bytes_read::ruby.dir_cntrl0      6632000                       # Number of bytes read from this memory
system.mem_ctrls.bytes_read::total            6632000                       # Number of bytes read from this memory
system.mem_ctrls.num_reads::ruby.dir_cntrl0       103625                       # Number of read requests responded to by this memory
system.mem_ctrls.num_reads::total              103625                       # Number of read requests responded to by this memory
system.mem_ctrls.bw_read::ruby.dir_cntrl0     27346676                       # Total read bandwidth from this memory (bytes/s)
system.mem_ctrls.bw_read::total              27346676                       # Total read bandwidth from this memory (bytes/s)
system.mem_ctrls.bw_total::ruby.dir_cntrl0     27346676                       # Total bandwidth to/from this memory (bytes/s)
system.mem_ctrls.bw_total::total             27346676                       # Total bandwidth to/from this memory (bytes/s)
system.mem_ctrls.readReqs                      103625                       # Number of read requests accepted
system.mem_ctrls.writeReqs                          0                       # Number of write requests accepted
system.mem_ctrls.readBursts                    103625                       # Number of DRAM read bursts, including those serviced by the write queue
system.mem_ctrls.writeBursts                        0                       # Number of DRAM write bursts, including those merged in the write queue
system.mem_ctrls.bytesReadDRAM                6632000                       # Total number of bytes read from DRAM
system.mem_ctrls.bytesReadWrQ                       0                       # Total number of bytes read from write queue
system.mem_ctrls.bytesWritten                       0                       # Total number of bytes written to DRAM
system.mem_ctrls.bytesReadSys                 6632000                       # Total read bytes from the system interface side
system.mem_ctrls.bytesWrittenSys                    0                       # Total written bytes from the system interface side
system.mem_ctrls.servicedByWrQ                      0                       # Number of DRAM read bursts serviced by the write queue
system.mem_ctrls.mergedWrBursts                     0                       # Number of DRAM write bursts merged with an existing one
system.mem_ctrls.neitherReadNorWriteReqs            0                       # Number of requests that are neither read nor write
system.mem_ctrls.perBankRdBursts::0              6486                       # Per bank write bursts
system.mem_ctrls.perBankRdBursts::1              6506                       # Per bank write bursts
system.mem_ctrls.perBankRdBursts::2              6534                       # Per bank write bursts
system.mem_ctrls.perBankRdBursts::3              6343                       # Per bank write bursts
system.mem_ctrls.perBankRdBursts::4              6340                       # Per bank write bursts
system.mem_ctrls.perBankRdBursts::5              6388                       # Per bank write bursts
system.mem_ctrls.perBankRdBursts::6              6430                       # Per bank write bursts
system.mem_ctrls.perBankRdBursts::7              6413                       # Per bank write bursts
system.mem_ctrls.perBankRdBursts::8              6442                       # Per bank write bursts
system.mem_ctrls.perBankRdBursts::9              6566                       # Per bank write bursts
system.mem_ctrls.perBankRdBursts::10             6633                       # Per bank write bursts
system.mem_ctrls.perBankRdBursts::11             6677                       # Per bank write bursts
system.mem_ctrls.perBankRdBursts::12             6497                       # Per bank write bursts
system.mem_ctrls.perBankRdBursts::13             6483                       # Per bank write bursts
system.mem_ctrls.perBankRdBursts::14             6442                       # Per bank write bursts
system.mem_ctrls.perBankRdBursts::15             6445                       # Per bank write bursts
system.mem_ctrls.perBankWrBursts::0                 0                       # Per bank write bursts
system.mem_ctrls.perBankWrBursts::1                 0                       # Per bank write bursts
system.mem_ctrls.perBankWrBursts::2                 0                       # Per bank write bursts
system.mem_ctrls.perBankWrBursts::3                 0                       # Per bank write bursts
system.mem_ctrls.perBankWrBursts::4                 0                       # Per bank write bursts
system.mem_ctrls.perBankWrBursts::5                 0                       # Per bank write bursts
system.mem_ctrls.perBankWrBursts::6                 0                       # Per bank write bursts
system.mem_ctrls.perBankWrBursts::7                 0                       # Per bank write bursts
system.mem_ctrls.perBankWrBursts::8                 0                       # Per bank write bursts
system.mem_ctrls.perBankWrBursts::9                 0                       # Per bank write bursts
system.mem_ctrls.perBankWrBursts::10                0                       # Per bank write bursts
system.mem_ctrls.perBankWrBursts::11                0                       # Per bank write bursts
system.mem_ctrls.perBankWrBursts::12                0                       # Per bank write bursts
system.mem_ctrls.perBankWrBursts::13                0                       # Per bank write bursts
system.mem_ctrls.perBankWrBursts::14                0                       # Per bank write bursts
system.mem_ctrls.perBankWrBursts::15                0                       # Per bank write bursts
system.mem_ctrls.numRdRetry                         0                       # Number of times read queue was full causing retry
system.mem_ctrls.numWrRetry                         0                       # Number of times write queue was full causing retry
system.mem_ctrls.totGap                  242515699000                       # Total gap between requests
system.mem_ctrls.readPktSize::0                     0                       # Read request sizes (log2)
system.mem_ctrls.readPktSize::1                     0                       # Read request sizes (log2)
system.mem_ctrls.readPktSize::2                     0                       # Read request sizes (log2)
system.mem_ctrls.readPktSize::3                     0                       # Read request sizes (log2)
system.mem_ctrls.readPktSize::4                     0                       # Read request sizes (log2)
system.mem_ctrls.readPktSize::5                     0                       # Read request sizes (log2)
system.mem_ctrls.readPktSize::6                103625                       # Read request sizes (log2)
system.mem_ctrls.writePktSize::0                    0                       # Write request sizes (log2)
system.mem_ctrls.writePktSize::1                    0                       # Write request sizes (log2)
system.mem_ctrls.writePktSize::2                    0                       # Write request sizes (log2)
system.mem_ctrls.writePktSize::3                    0                       # Write request sizes (log2)
system.mem_ctrls.writePktSize::4                    0                       # Write request sizes (log2)
system.mem_ctrls.writePktSize::5                    0                       # Write request sizes (log2)
system.mem_ctrls.writePktSize::6                    0                       # Write request sizes (log2)
system.mem_ctrls.rdQLenPdf::0                  102416                       # What read queue length does an incoming req see
system.mem_ctrls.rdQLenPdf::1                    1209                       # What read queue length does an incoming req see
system.mem_ctrls.rdQLenPdf::2                       0                       # What read queue length does an incoming req see
system.mem_ctrls.rdQLenPdf::3                       0                       # What read queue length does an incoming req see
system.mem_ctrls.rdQLenPdf::4                       0                       # What read queue length does an incoming req see
system.mem_ctrls.rdQLenPdf::5                       0                       # What read queue length does an incoming req see
system.mem_ctrls.rdQLenPdf::6                       0                       # What read queue length does an incoming req see
system.mem_ctrls.rdQLenPdf::7                       0                       # What read queue length does an incoming req see
system.mem_ctrls.rdQLenPdf::8                       0                       # What read queue length does an incoming req see
system.mem_ctrls.rdQLenPdf::9                       0                       # What read queue length does an incoming req see
system.mem_ctrls.rdQLenPdf::10                      0                       # What read queue length does an incoming req see
system.mem_ctrls.rdQLenPdf::11                      0                       # What read queue length does an incoming req see
system.mem_ctrls.rdQLenPdf::12                      0                       # What read queue length does an incoming req see
system.mem_ctrls.rdQLenPdf::13                      0                       # What read queue length does an incoming req see
system.mem_ctrls.rdQLenPdf::14                      0                       # What read queue length does an incoming req see
system.mem_ctrls.rdQLenPdf::15                      0                       # What read queue length does an incoming req see
system.mem_ctrls.rdQLenPdf::16                      0                       # What read queue length does an incoming req see
system.mem_ctrls.rdQLenPdf::17                      0                       # What read queue length does an incoming req see
system.mem_ctrls.rdQLenPdf::18                      0                       # What read queue length does an incoming req see
system.mem_ctrls.rdQLenPdf::19                      0                       # What read queue length does an incoming req see
system.mem_ctrls.rdQLenPdf::20                      0                       # What read queue length does an incoming req see
system.mem_ctrls.rdQLenPdf::21                      0                       # What read queue length does an incoming req see
system.mem_ctrls.rdQLenPdf::22                      0                       # What read queue length does an incoming req see
system.mem_ctrls.rdQLenPdf::23                      0                       # What read queue length does an incoming req see
system.mem_ctrls.rdQLenPdf::24                      0                       # What read queue length does an incoming req see
system.mem_ctrls.rdQLenPdf::25                      0                       # What read queue length does an incoming req see
system.mem_ctrls.rdQLenPdf::26                      0                       # What read queue length does an incoming req see
system.mem_ctrls.rdQLenPdf::27                      0                       # What read queue length does an incoming req see
system.mem_ctrls.rdQLenPdf::28                      0                       # What read queue length does an incoming req see
system.mem_ctrls.rdQLenPdf::29                      0                       # What read queue length does an incoming req see
system.mem_ctrls.rdQLenPdf::30                      0                       # What read queue length does an incoming req see
system.mem_ctrls.rdQLenPdf::31                      0                       # What read queue length does an incoming req see
system.mem_ctrls.wrQLenPdf::0                       0                       # What write queue length does an incoming req see
system.mem_ctrls.wrQLenPdf::1                       0                       # What write queue length does an incoming req see
system.mem_ctrls.wrQLenPdf::2                       0                       # What write queue length does an incoming req see
system.mem_ctrls.wrQLenPdf::3                       0                       # What write queue length does an incoming req see
system.mem_ctrls.wrQLenPdf::4                       0                       # What write queue length does an incoming req see
system.mem_ctrls.wrQLenPdf::5                       0                       # What write queue length does an incoming req see
system.mem_ctrls.wrQLenPdf::6                       0                       # What write queue length does an incoming req see
system.mem_ctrls.wrQLenPdf::7                       0                       # What write queue length does an incoming req see
system.mem_ctrls.wrQLenPdf::8                       0                       # What write queue length does an incoming req see
system.mem_ctrls.wrQLenPdf::9                       0                       # What write queue length does an incoming req see
system.mem_ctrls.wrQLenPdf::10                      0                       # What write queue length does an incoming req see
system.mem_ctrls.wrQLenPdf::11                      0                       # What write queue length does an incoming req see
system.mem_ctrls.wrQLenPdf::12                      0                       # What write queue length does an incoming req see
system.mem_ctrls.wrQLenPdf::13                      0                       # What write queue length does an incoming req see
system.mem_ctrls.wrQLenPdf::14                      0                       # What write queue length does an incoming req see
system.mem_ctrls.wrQLenPdf::15                      0                       # What write queue length does an incoming req see
system.mem_ctrls.wrQLenPdf::16                      0                       # What write queue length does an incoming req see
system.mem_ctrls.wrQLenPdf::17                      0                       # What write queue length does an incoming req see
system.mem_ctrls.wrQLenPdf::18                      0                       # What write queue length does an incoming req see
system.mem_ctrls.wrQLenPdf::19                      0                       # What write queue length does an incoming req see
system.mem_ctrls.wrQLenPdf::20                      0                       # What write queue length does an incoming req see
system.mem_ctrls.wrQLenPdf::21                      0                       # What write queue length does an incoming req see
system.mem_ctrls.wrQLenPdf::22                      0                       # What write queue length does an incoming req see
system.mem_ctrls.wrQLenPdf::23                      0                       # What write queue length does an incoming req see
system.mem_ctrls.wrQLenPdf::24                      0                       # What write queue length does an incoming req see
system.mem_ctrls.wrQLenPdf::25                      0                       # What write queue length does an incoming req see
system.mem_ctrls.wrQLenPdf::26                      0                       # What write queue length does an incoming req see
system.mem_ctrls.wrQLenPdf::27                      0                       # What write queue length does an incoming req see
system.mem_ctrls.wrQLenPdf::28                      0                       # What write queue length does an incoming req see
system.mem_ctrls.wrQLenPdf::29                      0                       # What write queue length does an incoming req see
system.mem_ctrls.wrQLenPdf::30                      0                       # What write queue length does an incoming req see
system.mem_ctrls.wrQLenPdf::31                      0                       # What write queue length does an incoming req see
system.mem_ctrls.wrQLenPdf::32                      0                       # What write queue length does an incoming req see
system.mem_ctrls.wrQLenPdf::33                      0                       # What write queue length does an incoming req see
system.mem_ctrls.wrQLenPdf::34                      0                       # What write queue length does an incoming req see
system.mem_ctrls.wrQLenPdf::35                      0                       # What write queue length does an incoming req see
system.mem_ctrls.wrQLenPdf::36                      0                       # What write queue length does an incoming req see
system.mem_ctrls.wrQLenPdf::37                      0                       # What write queue length does an incoming req see
system.mem_ctrls.wrQLenPdf::38                      0                       # What write queue length does an incoming req see
system.mem_ctrls.wrQLenPdf::39                      0                       # What write queue length does an incoming req see
system.mem_ctrls.wrQLenPdf::40                      0                       # What write queue length does an incoming req see
system.mem_ctrls.wrQLenPdf::41                      0                       # What write queue length does an incoming req see
system.mem_ctrls.wrQLenPdf::42                      0                       # What write queue length does an incoming req see
system.mem_ctrls.wrQLenPdf::43                      0                       # What write queue length does an incoming req see
system.mem_ctrls.wrQLenPdf::44                      0                       # What write queue length does an incoming req see
system.mem_ctrls.wrQLenPdf::45                      0                       # What write queue length does an incoming req see
system.mem_ctrls.wrQLenPdf::46                      0                       # What write queue length does an incoming req see
system.mem_ctrls.wrQLenPdf::47                      0                       # What write queue length does an incoming req see
system.mem_ctrls.wrQLenPdf::48                      0                       # What write queue length does an incoming req see
system.mem_ctrls.wrQLenPdf::49                      0                       # What write queue length does an incoming req see
system.mem_ctrls.wrQLenPdf::50                      0                       # What write queue length does an incoming req see
system.mem_ctrls.wrQLenPdf::51                      0                       # What write queue length does an incoming req see
system.mem_ctrls.wrQLenPdf::52                      0                       # What write queue length does an incoming req see
system.mem_ctrls.wrQLenPdf::53                      0                       # What write queue length does an incoming req see
system.mem_ctrls.wrQLenPdf::54                      0                       # What write queue length does an incoming req see
system.mem_ctrls.wrQLenPdf::55                      0                       # What write queue length does an incoming req see
system.mem_ctrls.wrQLenPdf::56                      0                       # What write queue length does an incoming req see
system.mem_ctrls.wrQLenPdf::57                      0                       # What write queue length does an incoming req see
system.mem_ctrls.wrQLenPdf::58                      0                       # What write queue length does an incoming req see
system.mem_ctrls.wrQLenPdf::59                      0                       # What write queue length does an incoming req see
system.mem_ctrls.wrQLenPdf::60                      0                       # What write queue length does an incoming req see
system.mem_ctrls.wrQLenPdf::61                      0                       # What write queue length does an incoming req see
system.mem_ctrls.wrQLenPdf::62                      0                       # What write queue length does an incoming req see
system.mem_ctrls.wrQLenPdf::63                      0                       # What write queue length does an incoming req see
system.mem_ctrls.bytesPerActivate::samples        24896                       # Bytes accessed per row activation
system.mem_ctrls.bytesPerActivate::mean    266.290488                       # Bytes accessed per row activation
system.mem_ctrls.bytesPerActivate::gmean   244.690433                       # Bytes accessed per row activation
system.mem_ctrls.bytesPerActivate::stdev   118.011816                       # Bytes accessed per row activation
system.mem_ctrls.bytesPerActivate::0-127         1804      7.25%      7.25% # Bytes accessed per row activation
system.mem_ctrls.bytesPerActivate::128-255         1047      4.21%     11.45% # Bytes accessed per row activation
system.mem_ctrls.bytesPerActivate::256-383        21466     86.22%     97.67% # Bytes accessed per row activation
system.mem_ctrls.bytesPerActivate::384-511           44      0.18%     97.85% # Bytes accessed per row activation
system.mem_ctrls.bytesPerActivate::512-639           46      0.18%     98.04% # Bytes accessed per row activation
system.mem_ctrls.bytesPerActivate::640-767           64      0.26%     98.29% # Bytes accessed per row activation
system.mem_ctrls.bytesPerActivate::768-895           28      0.11%     98.41% # Bytes accessed per row activation
system.mem_ctrls.bytesPerActivate::896-1023           54      0.22%     98.62% # Bytes accessed per row activation
system.mem_ctrls.bytesPerActivate::1024-1151          343      1.38%    100.00% # Bytes accessed per row activation
system.mem_ctrls.bytesPerActivate::total        24896                       # Bytes accessed per row activation
system.mem_ctrls.totQLat                    931944995                       # Total ticks spent queuing
system.mem_ctrls.totMemAccLat              2874913745                       # Total ticks spent from burst creation until serviced by the DRAM
system.mem_ctrls.totBusLat                  518125000                       # Total ticks spent in databus transfers
system.mem_ctrls.avgQLat                      8993.44                       # Average queueing delay per DRAM burst
system.mem_ctrls.avgBusLat                    5000.00                       # Average bus latency per DRAM burst
system.mem_ctrls.avgMemAccLat                27743.44                       # Average memory access latency per DRAM burst
system.mem_ctrls.avgRdBW                        27.35                       # Average DRAM read bandwidth in MiByte/s
system.mem_ctrls.avgWrBW                         0.00                       # Average achieved write bandwidth in MiByte/s
system.mem_ctrls.avgRdBWSys                     27.35                       # Average system read bandwidth in MiByte/s
system.mem_ctrls.avgWrBWSys                      0.00                       # Average system write bandwidth in MiByte/s
system.mem_ctrls.peakBW                      12800.00                       # Theoretical peak bandwidth in MiByte/s
system.mem_ctrls.busUtil                         0.21                       # Data bus utilization in percentage
system.mem_ctrls.busUtilRead                     0.21                       # Data bus utilization in percentage for reads
system.mem_ctrls.busUtilWrite                    0.00                       # Data bus utilization in percentage for writes
system.mem_ctrls.avgRdQLen                       1.01                       # Average read queue length when enqueuing
system.mem_ctrls.avgWrQLen                       0.00                       # Average write queue length when enqueuing
system.mem_ctrls.readRowHits                    78719                       # Number of row buffer hits during reads
system.mem_ctrls.writeRowHits                       0                       # Number of row buffer hits during writes
system.mem_ctrls.readRowHitRate                 75.97                       # Row buffer hit rate for reads
system.mem_ctrls.writeRowHitRate                  nan                       # Row buffer hit rate for writes
system.mem_ctrls.avgGap                    2340320.38                       # Average gap between requests
system.mem_ctrls.pageHitRate                    75.97                       # Row buffer hit rate, read and write combined
system.mem_ctrls_0.actEnergy                 95104800                       # Energy for activate commands per rank (pJ)
system.mem_ctrls_0.preEnergy                 51892500                       # Energy for precharge commands per rank (pJ)
system.mem_ctrls_0.readEnergy               401044800                       # Energy for read commands per rank (pJ)
system.mem_ctrls_0.writeEnergy                      0                       # Energy for write commands per rank (pJ)
system.mem_ctrls_0.refreshEnergy          15839609760                       # Energy for refresh commands per rank (pJ)
system.mem_ctrls_0.actBackEnergy          57371443065                       # Energy for active background per rank (pJ)
system.mem_ctrls_0.preBackEnergy          95180654250                       # Energy for precharge background per rank (pJ)
system.mem_ctrls_0.totalEnergy           168939749175                       # Total energy per rank (pJ)
system.mem_ctrls_0.averagePower            696.627727                       # Core power per rank (mW)
system.mem_ctrls_0.memoryStateTime::IDLE 158045375750                       # Time in different power states
system.mem_ctrls_0.memoryStateTime::REF    8097960000                       # Time in different power states
system.mem_ctrls_0.memoryStateTime::PRE_PDN            0                       # Time in different power states
system.mem_ctrls_0.memoryStateTime::ACT   76367480500                       # Time in different power states
system.mem_ctrls_0.memoryStateTime::ACT_PDN            0                       # Time in different power states
system.mem_ctrls_1.actEnergy                 93071160                       # Energy for activate commands per rank (pJ)
system.mem_ctrls_1.preEnergy                 50782875                       # Energy for precharge commands per rank (pJ)
system.mem_ctrls_1.readEnergy               406863600                       # Energy for read commands per rank (pJ)
system.mem_ctrls_1.writeEnergy                      0                       # Energy for write commands per rank (pJ)
system.mem_ctrls_1.refreshEnergy          15839609760                       # Energy for refresh commands per rank (pJ)
system.mem_ctrls_1.actBackEnergy          58172319000                       # Energy for active background per rank (pJ)
system.mem_ctrls_1.preBackEnergy          94478123250                       # Energy for precharge background per rank (pJ)
system.mem_ctrls_1.totalEnergy           169040769645                       # Total energy per rank (pJ)
system.mem_ctrls_1.averagePower            697.044327                       # Core power per rank (mW)
system.mem_ctrls_1.memoryStateTime::IDLE 156874939750                       # Time in different power states
system.mem_ctrls_1.memoryStateTime::REF    8097960000                       # Time in different power states
system.mem_ctrls_1.memoryStateTime::PRE_PDN            0                       # Time in different power states
system.mem_ctrls_1.memoryStateTime::ACT   77540561250                       # Time in different power states
system.mem_ctrls_1.memoryStateTime::ACT_PDN            0                       # Time in different power states
system.cpu_voltage_domain.voltage                   1                       # Voltage in Volts
system.cpu_clk_domain.clock                       500                       # Clock period in ticks
system.cpu0.apic_clk_domain.clock                8000                       # Clock period in ticks
system.cpu0.workload.num_syscalls                 180                       # Number of system calls
system.cpu0.numCycles                       485031520                       # number of cpu cycles simulated
system.cpu0.numWorkItemsStarted                     0                       # number of work items this cpu started
system.cpu0.numWorkItemsCompleted                   0                       # number of work items this cpu completed
system.cpu0.committedInsts                  137740955                       # Number of instructions committed
system.cpu0.committedOps                    376929256                       # Number of ops (including micro ops) committed
system.cpu0.num_int_alu_accesses            356751606                       # Number of integer alu accesses
system.cpu0.num_fp_alu_accesses               9533604                       # Number of float alu accesses
system.cpu0.num_func_calls                   12371210                       # number of times a function call or return occured
system.cpu0.num_conditional_control_insts     29225475                       # number of instructions that are conditional controls
system.cpu0.num_int_insts                   356751606                       # number of integer instructions
system.cpu0.num_fp_insts                      9533604                       # number of float instructions
system.cpu0.num_int_register_reads          752961183                       # number of times the integer registers were read
system.cpu0.num_int_register_writes         352221264                       # number of times the integer registers were written
system.cpu0.num_fp_register_reads            15270512                       # number of times the floating registers were read
system.cpu0.num_fp_register_writes            7593824                       # number of times the floating registers were written
system.cpu0.num_cc_register_reads           298473123                       # number of times the CC registers were read
system.cpu0.num_cc_register_writes          112295145                       # number of times the CC registers were written
system.cpu0.num_mem_refs                     60594576                       # number of memory refs
system.cpu0.num_load_insts                   37671377                       # Number of load instructions
system.cpu0.num_store_insts                  22923199                       # Number of store instructions
system.cpu0.num_idle_cycles                  0.002000                       # Number of idle cycles
system.cpu0.num_busy_cycles              485031519.998000                       # Number of busy cycles
system.cpu0.not_idle_fraction                1.000000                       # Percentage of non-idle cycles
system.cpu0.idle_fraction                    0.000000                       # Percentage of idle cycles
system.cpu0.Branches                         47700765                       # Number of branches fetched
system.cpu0.op_class::No_OpClass              6198113      1.64%      1.64% # Class of executed instruction
system.cpu0.op_class::IntAlu                271666011     72.07%     73.72% # Class of executed instruction
system.cpu0.op_class::IntMult                     704      0.00%     73.72% # Class of executed instruction
system.cpu0.op_class::IntDiv                 30876971      8.19%     81.91% # Class of executed instruction
system.cpu0.op_class::FloatAdd                7592881      2.01%     83.92% # Class of executed instruction
system.cpu0.op_class::FloatCmp                      0      0.00%     83.92% # Class of executed instruction
system.cpu0.op_class::FloatCvt                      0      0.00%     83.92% # Class of executed instruction
system.cpu0.op_class::FloatMult                     0      0.00%     83.92% # Class of executed instruction
system.cpu0.op_class::FloatDiv                      0      0.00%     83.92% # Class of executed instruction
system.cpu0.op_class::FloatSqrt                     0      0.00%     83.92% # Class of executed instruction
system.cpu0.op_class::SimdAdd                       0      0.00%     83.92% # Class of executed instruction
system.cpu0.op_class::SimdAddAcc                    0      0.00%     83.92% # Class of executed instruction
system.cpu0.op_class::SimdAlu                       0      0.00%     83.92% # Class of executed instruction
system.cpu0.op_class::SimdCmp                       0      0.00%     83.92% # Class of executed instruction
system.cpu0.op_class::SimdCvt                       0      0.00%     83.92% # Class of executed instruction
system.cpu0.op_class::SimdMisc                      0      0.00%     83.92% # Class of executed instruction
system.cpu0.op_class::SimdMult                      0      0.00%     83.92% # Class of executed instruction
system.cpu0.op_class::SimdMultAcc                   0      0.00%     83.92% # Class of executed instruction
system.cpu0.op_class::SimdShift                     0      0.00%     83.92% # Class of executed instruction
system.cpu0.op_class::SimdShiftAcc                  0      0.00%     83.92% # Class of executed instruction
system.cpu0.op_class::SimdSqrt                      0      0.00%     83.92% # Class of executed instruction
system.cpu0.op_class::SimdFloatAdd                  0      0.00%     83.92% # Class of executed instruction
system.cpu0.op_class::SimdFloatAlu                  0      0.00%     83.92% # Class of executed instruction
system.cpu0.op_class::SimdFloatCmp                  0      0.00%     83.92% # Class of executed instruction
system.cpu0.op_class::SimdFloatCvt                  0      0.00%     83.92% # Class of executed instruction
system.cpu0.op_class::SimdFloatDiv                  0      0.00%     83.92% # Class of executed instruction
system.cpu0.op_class::SimdFloatMisc                 0      0.00%     83.92% # Class of executed instruction
system.cpu0.op_class::SimdFloatMult                 0      0.00%     83.92% # Class of executed instruction
system.cpu0.op_class::SimdFloatMultAcc              0      0.00%     83.92% # Class of executed instruction
system.cpu0.op_class::SimdFloatSqrt                 0      0.00%     83.92% # Class of executed instruction
system.cpu0.op_class::MemRead                37671377      9.99%     93.92% # Class of executed instruction
system.cpu0.op_class::MemWrite               22923199      6.08%    100.00% # Class of executed instruction
system.cpu0.op_class::IprAccess                     0      0.00%    100.00% # Class of executed instruction
system.cpu0.op_class::InstPrefetch                  0      0.00%    100.00% # Class of executed instruction
system.cpu0.op_class::total                 376929256                       # Class of executed instruction
system.cpu1.apic_clk_domain.clock                8000                       # Clock period in ticks
system.cpu1.numCycles                       484529644                       # number of cpu cycles simulated
system.cpu1.numWorkItemsStarted                     0                       # number of work items this cpu started
system.cpu1.numWorkItemsCompleted                   0                       # number of work items this cpu completed
system.cpu1.committedInsts                   10277724                       # Number of instructions committed
system.cpu1.committedOps                     20348453                       # Number of ops (including micro ops) committed
system.cpu1.num_int_alu_accesses             15909237                       # Number of integer alu accesses
system.cpu1.num_fp_alu_accesses              10323215                       # Number of float alu accesses
system.cpu1.num_func_calls                      74293                       # number of times a function call or return occured
system.cpu1.num_conditional_control_insts      1134730                       # number of instructions that are conditional controls
system.cpu1.num_int_insts                    15909237                       # number of integer instructions
system.cpu1.num_fp_insts                     10323215                       # number of float instructions
system.cpu1.num_int_register_reads           30123742                       # number of times the integer registers were read
system.cpu1.num_int_register_writes           8846780                       # number of times the integer registers were written
system.cpu1.num_fp_register_reads            14638878                       # number of times the floating registers were read
system.cpu1.num_fp_register_writes            8730201                       # number of times the floating registers were written
system.cpu1.num_cc_register_reads             6845562                       # number of times the CC registers were read
system.cpu1.num_cc_register_writes            6826727                       # number of times the CC registers were written
system.cpu1.num_mem_refs                      6064064                       # number of memory refs
system.cpu1.num_load_insts                    4433688                       # Number of load instructions
system.cpu1.num_store_insts                   1630376                       # Number of store instructions
system.cpu1.num_idle_cycles              441893143.904112                       # Number of idle cycles
system.cpu1.num_busy_cycles              42636500.095888                       # Number of busy cycles
system.cpu1.not_idle_fraction                0.087996                       # Percentage of non-idle cycles
system.cpu1.idle_fraction                    0.912004                       # Percentage of idle cycles
system.cpu1.Branches                          1249267                       # Number of branches fetched
system.cpu1.op_class::No_OpClass                    6      0.00%      0.00% # Class of executed instruction
system.cpu1.op_class::IntAlu                  9736975     47.85%     47.85% # Class of executed instruction
system.cpu1.op_class::IntMult                  108148      0.53%     48.38% # Class of executed instruction
system.cpu1.op_class::IntDiv                       42      0.00%     48.38% # Class of executed instruction
system.cpu1.op_class::FloatAdd                4439218     21.82%     70.20% # Class of executed instruction
system.cpu1.op_class::FloatCmp                      0      0.00%     70.20% # Class of executed instruction
system.cpu1.op_class::FloatCvt                      0      0.00%     70.20% # Class of executed instruction
system.cpu1.op_class::FloatMult                     0      0.00%     70.20% # Class of executed instruction
system.cpu1.op_class::FloatDiv                      0      0.00%     70.20% # Class of executed instruction
system.cpu1.op_class::FloatSqrt                     0      0.00%     70.20% # Class of executed instruction
system.cpu1.op_class::SimdAdd                       0      0.00%     70.20% # Class of executed instruction
system.cpu1.op_class::SimdAddAcc                    0      0.00%     70.20% # Class of executed instruction
system.cpu1.op_class::SimdAlu                       0      0.00%     70.20% # Class of executed instruction
system.cpu1.op_class::SimdCmp                       0      0.00%     70.20% # Class of executed instruction
system.cpu1.op_class::SimdCvt                       0      0.00%     70.20% # Class of executed instruction
system.cpu1.op_class::SimdMisc                      0      0.00%     70.20% # Class of executed instruction
system.cpu1.op_class::SimdMult                      0      0.00%     70.20% # Class of executed instruction
system.cpu1.op_class::SimdMultAcc                   0      0.00%     70.20% # Class of executed instruction
system.cpu1.op_class::SimdShift                     0      0.00%     70.20% # Class of executed instruction
system.cpu1.op_class::SimdShiftAcc                  0      0.00%     70.20% # Class of executed instruction
system.cpu1.op_class::SimdSqrt                      0      0.00%     70.20% # Class of executed instruction
system.cpu1.op_class::SimdFloatAdd                  0      0.00%     70.20% # Class of executed instruction
system.cpu1.op_class::SimdFloatAlu                  0      0.00%     70.20% # Class of executed instruction
system.cpu1.op_class::SimdFloatCmp                  0      0.00%     70.20% # Class of executed instruction
system.cpu1.op_class::SimdFloatCvt                  0      0.00%     70.20% # Class of executed instruction
system.cpu1.op_class::SimdFloatDiv                  0      0.00%     70.20% # Class of executed instruction
system.cpu1.op_class::SimdFloatMisc                 0      0.00%     70.20% # Class of executed instruction
system.cpu1.op_class::SimdFloatMult                 0      0.00%     70.20% # Class of executed instruction
system.cpu1.op_class::SimdFloatMultAcc              0      0.00%     70.20% # Class of executed instruction
system.cpu1.op_class::SimdFloatSqrt                 0      0.00%     70.20% # Class of executed instruction
system.cpu1.op_class::MemRead                 4433688     21.79%     91.99% # Class of executed instruction
system.cpu1.op_class::MemWrite                1630376      8.01%    100.00% # Class of executed instruction
system.cpu1.op_class::IprAccess                     0      0.00%    100.00% # Class of executed instruction
system.cpu1.op_class::InstPrefetch                  0      0.00%    100.00% # Class of executed instruction
system.cpu1.op_class::total                  20348453                       # Class of executed instruction
system.cpu2.apic_clk_domain.clock                8000                       # Clock period in ticks
system.cpu2.numCycles                       484846506                       # number of cpu cycles simulated
system.cpu2.numWorkItemsStarted                     0                       # number of work items this cpu started
system.cpu2.numWorkItemsCompleted                   0                       # number of work items this cpu completed
system.cpu2.committedInsts                   10277724                       # Number of instructions committed
system.cpu2.committedOps                     20348453                       # Number of ops (including micro ops) committed
system.cpu2.num_int_alu_accesses             15909237                       # Number of integer alu accesses
system.cpu2.num_fp_alu_accesses              10323215                       # Number of float alu accesses
system.cpu2.num_func_calls                      74293                       # number of times a function call or return occured
system.cpu2.num_conditional_control_insts      1134730                       # number of instructions that are conditional controls
system.cpu2.num_int_insts                    15909237                       # number of integer instructions
system.cpu2.num_fp_insts                     10323215                       # number of float instructions
system.cpu2.num_int_register_reads           30123742                       # number of times the integer registers were read
system.cpu2.num_int_register_writes           8846780                       # number of times the integer registers were written
system.cpu2.num_fp_register_reads            14638878                       # number of times the floating registers were read
system.cpu2.num_fp_register_writes            8730201                       # number of times the floating registers were written
system.cpu2.num_cc_register_reads             6845562                       # number of times the CC registers were read
system.cpu2.num_cc_register_writes            6826727                       # number of times the CC registers were written
system.cpu2.num_mem_refs                      6064064                       # number of memory refs
system.cpu2.num_load_insts                    4433688                       # Number of load instructions
system.cpu2.num_store_insts                   1630376                       # Number of store instructions
system.cpu2.num_idle_cycles              442155775.481222                       # Number of idle cycles
system.cpu2.num_busy_cycles              42690730.518778                       # Number of busy cycles
system.cpu2.not_idle_fraction                0.088050                       # Percentage of non-idle cycles
system.cpu2.idle_fraction                    0.911950                       # Percentage of idle cycles
system.cpu2.Branches                          1249267                       # Number of branches fetched
system.cpu2.op_class::No_OpClass                    6      0.00%      0.00% # Class of executed instruction
system.cpu2.op_class::IntAlu                  9736975     47.85%     47.85% # Class of executed instruction
system.cpu2.op_class::IntMult                  108148      0.53%     48.38% # Class of executed instruction
system.cpu2.op_class::IntDiv                       42      0.00%     48.38% # Class of executed instruction
system.cpu2.op_class::FloatAdd                4439218     21.82%     70.20% # Class of executed instruction
system.cpu2.op_class::FloatCmp                      0      0.00%     70.20% # Class of executed instruction
system.cpu2.op_class::FloatCvt                      0      0.00%     70.20% # Class of executed instruction
system.cpu2.op_class::FloatMult                     0      0.00%     70.20% # Class of executed instruction
system.cpu2.op_class::FloatDiv                      0      0.00%     70.20% # Class of executed instruction
system.cpu2.op_class::FloatSqrt                     0      0.00%     70.20% # Class of executed instruction
system.cpu2.op_class::SimdAdd                       0      0.00%     70.20% # Class of executed instruction
system.cpu2.op_class::SimdAddAcc                    0      0.00%     70.20% # Class of executed instruction
system.cpu2.op_class::SimdAlu                       0      0.00%     70.20% # Class of executed instruction
system.cpu2.op_class::SimdCmp                       0      0.00%     70.20% # Class of executed instruction
system.cpu2.op_class::SimdCvt                       0      0.00%     70.20% # Class of executed instruction
system.cpu2.op_class::SimdMisc                      0      0.00%     70.20% # Class of executed instruction
system.cpu2.op_class::SimdMult                      0      0.00%     70.20% # Class of executed instruction
system.cpu2.op_class::SimdMultAcc                   0      0.00%     70.20% # Class of executed instruction
system.cpu2.op_class::SimdShift                     0      0.00%     70.20% # Class of executed instruction
system.cpu2.op_class::SimdShiftAcc                  0      0.00%     70.20% # Class of executed instruction
system.cpu2.op_class::SimdSqrt                      0      0.00%     70.20% # Class of executed instruction
system.cpu2.op_class::SimdFloatAdd                  0      0.00%     70.20% # Class of executed instruction
system.cpu2.op_class::SimdFloatAlu                  0      0.00%     70.20% # Class of executed instruction
system.cpu2.op_class::SimdFloatCmp                  0      0.00%     70.20% # Class of executed instruction
system.cpu2.op_class::SimdFloatCvt                  0      0.00%     70.20% # Class of executed instruction
system.cpu2.op_class::SimdFloatDiv                  0      0.00%     70.20% # Class of executed instruction
system.cpu2.op_class::SimdFloatMisc                 0      0.00%     70.20% # Class of executed instruction
system.cpu2.op_class::SimdFloatMult                 0      0.00%     70.20% # Class of executed instruction
system.cpu2.op_class::SimdFloatMultAcc              0      0.00%     70.20% # Class of executed instruction
system.cpu2.op_class::SimdFloatSqrt                 0      0.00%     70.20% # Class of executed instruction
system.cpu2.op_class::MemRead                 4433688     21.79%     91.99% # Class of executed instruction
system.cpu2.op_class::MemWrite                1630376      8.01%    100.00% # Class of executed instruction
system.cpu2.op_class::IprAccess                     0      0.00%    100.00% # Class of executed instruction
system.cpu2.op_class::InstPrefetch                  0      0.00%    100.00% # Class of executed instruction
system.cpu2.op_class::total                  20348453                       # Class of executed instruction
system.ruby.clk_domain.clock                      500                       # Clock period in ticks
system.ruby.delayHist::bucket_size                  4                       # delay histogram for all message
system.ruby.delayHist::max_bucket                  39                       # delay histogram for all message
system.ruby.delayHist::samples                3189418                       # delay histogram for all message
system.ruby.delayHist::mean                  0.762032                       # delay histogram for all message
system.ruby.delayHist::stdev                 2.415997                       # delay histogram for all message
system.ruby.delayHist                    |     2892156     90.68%     90.68% |       13835      0.43%     91.11% |      275614      8.64%     99.76% |        3262      0.10%     99.86% |        3475      0.11%     99.97% |         645      0.02%     99.99% |         430      0.01%    100.00% |           1      0.00%    100.00% |           0      0.00%    100.00% |           0      0.00%    100.00% # delay histogram for all message
system.ruby.delayHist::total                  3189418                       # delay histogram for all message
system.ruby.outstanding_req_hist::bucket_size            1                      
system.ruby.outstanding_req_hist::max_bucket            9                      
system.ruby.outstanding_req_hist::samples    272827660                      
system.ruby.outstanding_req_hist::mean       1.000376                      
system.ruby.outstanding_req_hist::gmean      1.000261                      
system.ruby.outstanding_req_hist::stdev      0.019388                      
system.ruby.outstanding_req_hist         |           0      0.00%      0.00% |   272725068     99.96%     99.96% |      102592      0.04%    100.00% |           0      0.00%    100.00% |           0      0.00%    100.00% |           0      0.00%    100.00% |           0      0.00%    100.00% |           0      0.00%    100.00% |           0      0.00%    100.00% |           0      0.00%    100.00%
system.ruby.outstanding_req_hist::total     272827660                      
system.ruby.latency_hist::bucket_size             128                      
system.ruby.latency_hist::max_bucket             1279                      
system.ruby.latency_hist::samples           272827660                      
system.ruby.latency_hist::mean               1.091283                      
system.ruby.latency_hist::gmean              1.008274                      
system.ruby.latency_hist::stdev              3.012728                      
system.ruby.latency_hist                 |   272802741     99.99%     99.99% |       19426      0.01%    100.00% |        4844      0.00%    100.00% |         335      0.00%    100.00% |         175      0.00%    100.00% |         139      0.00%    100.00% |           0      0.00%    100.00% |           0      0.00%    100.00% |           0      0.00%    100.00% |           0      0.00%    100.00%
system.ruby.latency_hist::total             272827660                      
system.ruby.hit_latency_hist::bucket_size          128                      
system.ruby.hit_latency_hist::max_bucket         1279                      
system.ruby.hit_latency_hist::samples       272827660                      
system.ruby.hit_latency_hist::mean           1.091283                      
system.ruby.hit_latency_hist::gmean          1.008274                      
system.ruby.hit_latency_hist::stdev          3.012728                      
system.ruby.hit_latency_hist             |   272802741     99.99%     99.99% |       19426      0.01%    100.00% |        4844      0.00%    100.00% |         335      0.00%    100.00% |         175      0.00%    100.00% |         139      0.00%    100.00% |           0      0.00%    100.00% |           0      0.00%    100.00% |           0      0.00%    100.00% |           0      0.00%    100.00%
system.ruby.hit_latency_hist::total         272827660                      
system.ruby.l0_cntrl0.Dcache.demand_hits     60461730                       # Number of cache demand hits
system.ruby.l0_cntrl0.Dcache.demand_misses       132896                       # Number of cache demand misses
system.ruby.l0_cntrl0.Dcache.demand_accesses     60594626                       # Number of cache demand accesses
system.ruby.l0_cntrl0.Icache.demand_hits    175101711                       # Number of cache demand hits
system.ruby.l0_cntrl0.Icache.demand_misses         2961                       # Number of cache demand misses
system.ruby.l0_cntrl0.Icache.demand_accesses    175104672                       # Number of cache demand accesses
system.ruby.l0_cntrl0.Zcache.demand_hits            0                       # Number of cache demand hits
system.ruby.l0_cntrl0.Zcache.demand_misses            0                       # Number of cache demand misses
system.ruby.l0_cntrl0.Zcache.demand_accesses            0                       # Number of cache demand accesses
system.ruby.l0_cntrl1.Dcache.demand_hits      5786706                       # Number of cache demand hits
system.ruby.l0_cntrl1.Dcache.demand_misses       327748                       # Number of cache demand misses
system.ruby.l0_cntrl1.Dcache.demand_accesses      6114454                       # Number of cache demand accesses
system.ruby.l0_cntrl1.Icache.demand_hits     12448514                       # Number of cache demand hits
system.ruby.l0_cntrl1.Icache.demand_misses          332                       # Number of cache demand misses
system.ruby.l0_cntrl1.Icache.demand_accesses     12448846                       # Number of cache demand accesses
system.ruby.l0_cntrl1.Zcache.demand_hits            0                       # Number of cache demand hits
system.ruby.l0_cntrl1.Zcache.demand_misses            0                       # Number of cache demand misses
system.ruby.l0_cntrl1.Zcache.demand_accesses            0                       # Number of cache demand accesses
system.ruby.l0_cntrl2.Dcache.demand_hits      5788099                       # Number of cache demand hits
system.ruby.l0_cntrl2.Dcache.demand_misses       328117                       # Number of cache demand misses
system.ruby.l0_cntrl2.Dcache.demand_accesses      6116216                       # Number of cache demand accesses
system.ruby.l0_cntrl2.Icache.demand_hits     12448522                       # Number of cache demand hits
system.ruby.l0_cntrl2.Icache.demand_misses          324                       # Number of cache demand misses
system.ruby.l0_cntrl2.Icache.demand_accesses     12448846                       # Number of cache demand accesses
system.ruby.l0_cntrl2.Zcache.demand_hits            0                       # Number of cache demand hits
system.ruby.l0_cntrl2.Zcache.demand_misses            0                       # Number of cache demand misses
system.ruby.l0_cntrl2.Zcache.demand_accesses            0                       # Number of cache demand accesses
system.ruby.l1_cntrl0.cache.demand_hits         10403                       # Number of cache demand hits
system.ruby.l1_cntrl0.cache.demand_misses       125454                       # Number of cache demand misses
system.ruby.l1_cntrl0.cache.demand_accesses       135857                       # Number of cache demand accesses
system.ruby.l1_cntrl1.cache.demand_hits        144042                       # Number of cache demand hits
system.ruby.l1_cntrl1.cache.demand_misses       184038                       # Number of cache demand misses
system.ruby.l1_cntrl1.cache.demand_accesses       328080                       # Number of cache demand accesses
system.ruby.l1_cntrl2.cache.demand_hits        144137                       # Number of cache demand hits
system.ruby.l1_cntrl2.cache.demand_misses       184304                       # Number of cache demand misses
system.ruby.l1_cntrl2.cache.demand_accesses       328441                       # Number of cache demand accesses
system.ruby.l2_cntrl0.L2cache.demand_hits       332589                       # Number of cache demand hits
system.ruby.l2_cntrl0.L2cache.demand_misses       161207                       # Number of cache demand misses
system.ruby.l2_cntrl0.L2cache.demand_accesses       493796                       # Number of cache demand accesses
system.ruby.memctrl_clk_domain.clock             1500                       # Clock period in ticks
system.ruby.network.routers0.percent_links_utilized            0                      
system.ruby.network.routers1.percent_links_utilized            0                      
system.ruby.network.routers2.percent_links_utilized            0                      
system.ruby.network.routers3.percent_links_utilized     0.137377                      
system.ruby.network.routers3.msg_count.Control::0       125454                      
system.ruby.network.routers3.msg_count.Request_Control::2         7951                      
system.ruby.network.routers3.msg_count.Response_Data::1       133409                      
system.ruby.network.routers3.msg_count.Response_Control::1       124658                      
system.ruby.network.routers3.msg_count.Response_Control::2       125446                      
system.ruby.network.routers3.msg_count.Writeback_Data::0       120057                      
system.ruby.network.routers3.msg_count.Writeback_Control::0          576                      
system.ruby.network.routers3.msg_bytes.Control::0      1003632                      
system.ruby.network.routers3.msg_bytes.Request_Control::2        63608                      
system.ruby.network.routers3.msg_bytes.Response_Data::1      9605448                      
system.ruby.network.routers3.msg_bytes.Response_Control::1       997264                      
system.ruby.network.routers3.msg_bytes.Response_Control::2      1003568                      
system.ruby.network.routers3.msg_bytes.Writeback_Data::0      8644104                      
system.ruby.network.routers3.msg_bytes.Writeback_Control::0         4608                      
system.ruby.network.routers4.percent_links_utilized     0.142558                      
system.ruby.network.routers4.msg_count.Control::0       184038                      
system.ruby.network.routers4.msg_count.Request_Control::2        57310                      
system.ruby.network.routers4.msg_count.Response_Data::1       212853                      
system.ruby.network.routers4.msg_count.Response_Control::1       156102                      
system.ruby.network.routers4.msg_count.Response_Control::2       122829                      
system.ruby.network.routers4.msg_count.Writeback_Data::0        32904                      
system.ruby.network.routers4.msg_count.Writeback_Control::0        33714                      
system.ruby.network.routers4.msg_bytes.Control::0      1472304                      
system.ruby.network.routers4.msg_bytes.Request_Control::2       458480                      
system.ruby.network.routers4.msg_bytes.Response_Data::1     15325416                      
system.ruby.network.routers4.msg_bytes.Response_Control::1      1248816                      
system.ruby.network.routers4.msg_bytes.Response_Control::2       982632                      
system.ruby.network.routers4.msg_bytes.Writeback_Data::0      2369088                      
system.ruby.network.routers4.msg_bytes.Writeback_Control::0       269712                      
system.ruby.network.routers5.percent_links_utilized     0.154182                      
system.ruby.network.routers5.msg_count.Control::0       184304                      
system.ruby.network.routers5.msg_count.Request_Control::2        53482                      
system.ruby.network.routers5.msg_count.Response_Data::1       205189                      
system.ruby.network.routers5.msg_count.Response_Control::1       180057                      
system.ruby.network.routers5.msg_count.Response_Control::2       155310                      
system.ruby.network.routers5.msg_count.Writeback_Data::0        59715                      
system.ruby.network.routers5.msg_count.Writeback_Control::0        34038                      
system.ruby.network.routers5.msg_bytes.Control::0      1474432                      
system.ruby.network.routers5.msg_bytes.Request_Control::2       427856                      
system.ruby.network.routers5.msg_bytes.Response_Data::1     14773608                      
system.ruby.network.routers5.msg_bytes.Response_Control::1      1440456                      
system.ruby.network.routers5.msg_bytes.Response_Control::2      1242480                      
system.ruby.network.routers5.msg_bytes.Writeback_Data::0      4299480                      
system.ruby.network.routers5.msg_bytes.Writeback_Control::0       272304                      
system.ruby.network.routers6.percent_links_utilized     0.427613                      
system.ruby.network.routers6.msg_count.Control::0       597421                      
system.ruby.network.routers6.msg_count.Request_Control::2       115052                      
system.ruby.network.routers6.msg_count.Response_Data::1       539921                      
system.ruby.network.routers6.msg_count.Response_Control::1       338477                      
system.ruby.network.routers6.msg_count.Response_Control::2       403585                      
system.ruby.network.routers6.msg_count.Writeback_Data::0       212676                      
system.ruby.network.routers6.msg_count.Writeback_Control::0        68328                      
system.ruby.network.routers6.msg_bytes.Control::0      4779368                      
system.ruby.network.routers6.msg_bytes.Request_Control::2       920416                      
system.ruby.network.routers6.msg_bytes.Response_Data::1     38874312                      
system.ruby.network.routers6.msg_bytes.Response_Control::1      2707816                      
system.ruby.network.routers6.msg_bytes.Response_Control::2      3228680                      
system.ruby.network.routers6.msg_bytes.Writeback_Data::0     15312672                      
system.ruby.network.routers6.msg_bytes.Writeback_Control::0       546624                      
system.ruby.network.routers7.percent_links_utilized     0.053411                      
system.ruby.network.routers7.msg_count.Control::0       103625                      
system.ruby.network.routers7.msg_count.Response_Data::1       103625                      
system.ruby.network.routers7.msg_bytes.Control::0       829000                      
system.ruby.network.routers7.msg_bytes.Response_Data::1      7461000                      
system.ruby.network.routers8.percent_links_utilized     0.114417                      
system.ruby.network.routers8.msg_count.Control::0       597421                      
system.ruby.network.routers8.msg_count.Request_Control::2       118743                      
system.ruby.network.routers8.msg_count.Response_Data::1       597503                      
system.ruby.network.routers8.msg_count.Response_Control::1       399647                      
system.ruby.network.routers8.msg_count.Response_Control::2       403585                      
system.ruby.network.routers8.msg_count.Writeback_Data::0       212676                      
system.ruby.network.routers8.msg_count.Writeback_Control::0        68328                      
system.ruby.network.routers8.msg_bytes.Control::0      4779368                      
system.ruby.network.routers8.msg_bytes.Request_Control::2       949944                      
system.ruby.network.routers8.msg_bytes.Response_Data::1     43020216                      
system.ruby.network.routers8.msg_bytes.Response_Control::1      3197176                      
system.ruby.network.routers8.msg_bytes.Response_Control::2      3228680                      
system.ruby.network.routers8.msg_bytes.Writeback_Data::0     15312672                      
system.ruby.network.routers8.msg_bytes.Writeback_Control::0       546624                      
system.ruby.network.msg_count.Control         1792263                      
system.ruby.network.msg_count.Request_Control       352538                      
system.ruby.network.msg_count.Response_Data      1792500                      
system.ruby.network.msg_count.Response_Control      2409696                      
system.ruby.network.msg_count.Writeback_Data       638028                      
system.ruby.network.msg_count.Writeback_Control       204984                      
system.ruby.network.msg_byte.Control         14338104                      
system.ruby.network.msg_byte.Request_Control      2820304                      
system.ruby.network.msg_byte.Response_Data    129060000                      
system.ruby.network.msg_byte.Response_Control     19277568                      
system.ruby.network.msg_byte.Writeback_Data     45938016                      
system.ruby.network.msg_byte.Writeback_Control      1639872                      
system.ruby.network.routers0.throttle0.link_utilization            0                      
system.ruby.network.routers0.throttle1.link_utilization            0                      
system.ruby.network.routers1.throttle0.link_utilization            0                      
system.ruby.network.routers1.throttle1.link_utilization            0                      
system.ruby.network.routers2.throttle0.link_utilization            0                      
system.ruby.network.routers2.throttle1.link_utilization            0                      
system.ruby.network.routers3.throttle0.link_utilization     0.129627                      
system.ruby.network.routers3.throttle0.msg_count.Request_Control::2         7951                      
system.ruby.network.routers3.throttle0.msg_count.Response_Data::1       125423                      
system.ruby.network.routers3.throttle0.msg_count.Response_Control::1       120703                      
system.ruby.network.routers3.throttle0.msg_bytes.Request_Control::2        63608                      
system.ruby.network.routers3.throttle0.msg_bytes.Response_Data::1      9030456                      
system.ruby.network.routers3.throttle0.msg_bytes.Response_Control::1       965624                      
system.ruby.network.routers3.throttle1.link_utilization     0.145126                      
system.ruby.network.routers3.throttle1.msg_count.Control::0       125454                      
system.ruby.network.routers3.throttle1.msg_count.Response_Data::1         7986                      
system.ruby.network.routers3.throttle1.msg_count.Response_Control::1         3955                      
system.ruby.network.routers3.throttle1.msg_count.Response_Control::2       125446                      
system.ruby.network.routers3.throttle1.msg_count.Writeback_Data::0       120057                      
system.ruby.network.routers3.throttle1.msg_count.Writeback_Control::0          576                      
system.ruby.network.routers3.throttle1.msg_bytes.Control::0      1003632                      
system.ruby.network.routers3.throttle1.msg_bytes.Response_Data::1       574992                      
system.ruby.network.routers3.throttle1.msg_bytes.Response_Control::1        31640                      
system.ruby.network.routers3.throttle1.msg_bytes.Response_Control::2      1003568                      
system.ruby.network.routers3.throttle1.msg_bytes.Writeback_Data::0      8644104                      
system.ruby.network.routers3.throttle1.msg_bytes.Writeback_Control::0         4608                      
system.ruby.network.routers4.throttle0.link_utilization     0.163263                      
system.ruby.network.routers4.throttle0.msg_count.Request_Control::2        57310                      
system.ruby.network.routers4.throttle0.msg_count.Response_Data::1       155438                      
system.ruby.network.routers4.throttle0.msg_count.Response_Control::1       127504                      
system.ruby.network.routers4.throttle0.msg_bytes.Request_Control::2       458480                      
system.ruby.network.routers4.throttle0.msg_bytes.Response_Data::1     11191536                      
system.ruby.network.routers4.throttle0.msg_bytes.Response_Control::1      1020032                      
system.ruby.network.routers4.throttle1.link_utilization     0.121853                      
system.ruby.network.routers4.throttle1.msg_count.Control::0       184038                      
system.ruby.network.routers4.throttle1.msg_count.Response_Data::1        57415                      
system.ruby.network.routers4.throttle1.msg_count.Response_Control::1        28598                      
system.ruby.network.routers4.throttle1.msg_count.Response_Control::2       122829                      
system.ruby.network.routers4.throttle1.msg_count.Writeback_Data::0        32904                      
system.ruby.network.routers4.throttle1.msg_count.Writeback_Control::0        33714                      
system.ruby.network.routers4.throttle1.msg_bytes.Control::0      1472304                      
system.ruby.network.routers4.throttle1.msg_bytes.Response_Data::1      4133880                      
system.ruby.network.routers4.throttle1.msg_bytes.Response_Control::1       228784                      
system.ruby.network.routers4.throttle1.msg_bytes.Response_Control::2       982632                      
system.ruby.network.routers4.throttle1.msg_bytes.Writeback_Data::0      2369088                      
system.ruby.network.routers4.throttle1.msg_bytes.Writeback_Control::0       269712                      
system.ruby.network.routers5.throttle0.link_utilization     0.165358                      
system.ruby.network.routers5.throttle0.msg_count.Request_Control::2        53482                      
system.ruby.network.routers5.throttle0.msg_count.Response_Data::1       155462                      
system.ruby.network.routers5.throttle0.msg_count.Response_Control::1       151440                      
system.ruby.network.routers5.throttle0.msg_bytes.Request_Control::2       427856                      
system.ruby.network.routers5.throttle0.msg_bytes.Response_Data::1     11193264                      
system.ruby.network.routers5.throttle0.msg_bytes.Response_Control::1      1211520                      
system.ruby.network.routers5.throttle1.link_utilization     0.143006                      
system.ruby.network.routers5.throttle1.msg_count.Control::0       184304                      
system.ruby.network.routers5.throttle1.msg_count.Response_Data::1        49727                      
system.ruby.network.routers5.throttle1.msg_count.Response_Control::1        28617                      
system.ruby.network.routers5.throttle1.msg_count.Response_Control::2       155310                      
system.ruby.network.routers5.throttle1.msg_count.Writeback_Data::0        59715                      
system.ruby.network.routers5.throttle1.msg_count.Writeback_Control::0        34038                      
system.ruby.network.routers5.throttle1.msg_bytes.Control::0      1474432                      
system.ruby.network.routers5.throttle1.msg_bytes.Response_Data::1      3580344                      
system.ruby.network.routers5.throttle1.msg_bytes.Response_Control::1       228936                      
system.ruby.network.routers5.throttle1.msg_bytes.Response_Control::2      1242480                      
system.ruby.network.routers5.throttle1.msg_bytes.Writeback_Data::0      4299480                      
system.ruby.network.routers5.throttle1.msg_bytes.Writeback_Control::0       272304                      
system.ruby.network.routers6.throttle0.link_utilization     0.446405                      
system.ruby.network.routers6.throttle0.msg_count.Control::0       493796                      
system.ruby.network.routers6.throttle0.msg_count.Response_Data::1       161180                      
system.ruby.network.routers6.throttle0.msg_count.Response_Control::2       403585                      
system.ruby.network.routers6.throttle0.msg_count.Writeback_Data::0       212676                      
system.ruby.network.routers6.throttle0.msg_count.Writeback_Control::0        68328                      
system.ruby.network.routers6.throttle0.msg_bytes.Control::0      3950368                      
system.ruby.network.routers6.throttle0.msg_bytes.Response_Data::1     11604960                      
system.ruby.network.routers6.throttle0.msg_bytes.Response_Control::2      3228680                      
system.ruby.network.routers6.throttle0.msg_bytes.Writeback_Data::0     15312672                      
system.ruby.network.routers6.throttle0.msg_bytes.Writeback_Control::0       546624                      
system.ruby.network.routers6.throttle1.link_utilization     0.408821                      
system.ruby.network.routers6.throttle1.msg_count.Control::0       103625                      
system.ruby.network.routers6.throttle1.msg_count.Request_Control::2       115052                      
system.ruby.network.routers6.throttle1.msg_count.Response_Data::1       378741                      
system.ruby.network.routers6.throttle1.msg_count.Response_Control::1       338477                      
system.ruby.network.routers6.throttle1.msg_bytes.Control::0       829000                      
system.ruby.network.routers6.throttle1.msg_bytes.Request_Control::2       920416                      
system.ruby.network.routers6.throttle1.msg_bytes.Response_Data::1     27269352                      
system.ruby.network.routers6.throttle1.msg_bytes.Response_Control::1      2707816                      
system.ruby.network.routers7.throttle0.link_utilization     0.010682                      
system.ruby.network.routers7.throttle0.msg_count.Control::0       103625                      
system.ruby.network.routers7.throttle0.msg_bytes.Control::0       829000                      
system.ruby.network.routers7.throttle1.link_utilization     0.096141                      
system.ruby.network.routers7.throttle1.msg_count.Response_Data::1       103625                      
system.ruby.network.routers7.throttle1.msg_bytes.Response_Data::1      7461000                      
system.ruby.network.routers8.throttle0.link_utilization            0                      
system.ruby.network.routers8.throttle1.link_utilization            0                      
system.ruby.network.routers8.throttle2.link_utilization            0                      
system.ruby.network.routers8.throttle3.link_utilization     0.129627                      
system.ruby.network.routers8.throttle3.msg_count.Request_Control::2         7951                      
system.ruby.network.routers8.throttle3.msg_count.Response_Data::1       125423                      
system.ruby.network.routers8.throttle3.msg_count.Response_Control::1       120703                      
system.ruby.network.routers8.throttle3.msg_bytes.Request_Control::2        63608                      
system.ruby.network.routers8.throttle3.msg_bytes.Response_Data::1      9030456                      
system.ruby.network.routers8.throttle3.msg_bytes.Response_Control::1       965624                      
system.ruby.network.routers8.throttle4.link_utilization     0.163263                      
system.ruby.network.routers8.throttle4.msg_count.Request_Control::2        57310                      
system.ruby.network.routers8.throttle4.msg_count.Response_Data::1       155438                      
system.ruby.network.routers8.throttle4.msg_count.Response_Control::1       127504                      
system.ruby.network.routers8.throttle4.msg_bytes.Request_Control::2       458480                      
system.ruby.network.routers8.throttle4.msg_bytes.Response_Data::1     11191536                      
system.ruby.network.routers8.throttle4.msg_bytes.Response_Control::1      1020032                      
system.ruby.network.routers8.throttle5.link_utilization     0.165358                      
system.ruby.network.routers8.throttle5.msg_count.Request_Control::2        53482                      
system.ruby.network.routers8.throttle5.msg_count.Response_Data::1       155462                      
system.ruby.network.routers8.throttle5.msg_count.Response_Control::1       151440                      
system.ruby.network.routers8.throttle5.msg_bytes.Request_Control::2       427856                      
system.ruby.network.routers8.throttle5.msg_bytes.Response_Data::1     11193264                      
system.ruby.network.routers8.throttle5.msg_bytes.Response_Control::1      1211520                      
system.ruby.network.routers8.throttle6.link_utilization     0.446405                      
system.ruby.network.routers8.throttle6.msg_count.Control::0       493796                      
system.ruby.network.routers8.throttle6.msg_count.Response_Data::1       161180                      
system.ruby.network.routers8.throttle6.msg_count.Response_Control::2       403585                      
system.ruby.network.routers8.throttle6.msg_count.Writeback_Data::0       212676                      
system.ruby.network.routers8.throttle6.msg_count.Writeback_Control::0        68328                      
system.ruby.network.routers8.throttle6.msg_bytes.Control::0      3950368                      
system.ruby.network.routers8.throttle6.msg_bytes.Response_Data::1     11604960                      
system.ruby.network.routers8.throttle6.msg_bytes.Response_Control::2      3228680                      
system.ruby.network.routers8.throttle6.msg_bytes.Writeback_Data::0     15312672                      
system.ruby.network.routers8.throttle6.msg_bytes.Writeback_Control::0       546624                      
system.ruby.network.routers8.throttle7.link_utilization     0.010682                      
system.ruby.network.routers8.throttle7.msg_count.Control::0       103625                      
system.ruby.network.routers8.throttle7.msg_bytes.Control::0       829000                      
system.ruby.delayVCHist.vnet_0::bucket_size            4                       # delay histogram for vnet_0
system.ruby.delayVCHist.vnet_0::max_bucket           39                       # delay histogram for vnet_0
system.ruby.delayVCHist.vnet_0::samples       1178385                       # delay histogram for vnet_0
system.ruby.delayVCHist.vnet_0::mean         1.568157                       # delay histogram for vnet_0
system.ruby.delayVCHist.vnet_0::stdev        3.321133                       # delay histogram for vnet_0
[...]
system.ruby.L0Cache_Controller.IS.Data::total       148372                      
system.ruby.L0Cache_Controller.IS.Data_Exclusive |        8486      1.85%      1.85% |      212366     46.41%     48.26% |      236732     51.74%    100.00%
system.ruby.L0Cache_Controller.IS.Data_Exclusive::total       457584                      
system.ruby.L0Cache_Controller.IM.Data_Exclusive |      127266     98.69%     98.69% |         850      0.66%     99.35% |         837      0.65%    100.00%
system.ruby.L0Cache_Controller.IM.Data_Exclusive::total       128953                      
system.ruby.L0Cache_Controller.SM.Data_Exclusive |          31      0.05%      0.05% |       28598     49.76%     49.82% |       28840     50.18%    100.00%
system.ruby.L0Cache_Controller.SM.Data_Exclusive::total        57469                      
system.ruby.L1Cache_Controller.Load      |        8560      1.41%      1.41% |      298632     49.28%     50.70% |      298764     49.30%    100.00%
system.ruby.L1Cache_Controller.Load::total       605956                      
system.ruby.L1Cache_Controller.Store     |      127297     68.28%     68.28% |       29448     15.80%     84.08% |       29677     15.92%    100.00%
system.ruby.L1Cache_Controller.Store::total       186422                      
system.ruby.L1Cache_Controller.WriteBack |      133479     21.17%     21.17% |      236925     37.58%     58.75% |      260062     41.25%    100.00%
system.ruby.L1Cache_Controller.WriteBack::total       630466                      
system.ruby.L1Cache_Controller.L0_DataAck |         617     12.20%     12.20% |        4233     83.71%     95.91% |         207      4.09%    100.00%
system.ruby.L1Cache_Controller.L0_DataAck::total         5057                      
system.ruby.L1Cache_Controller.Inv       |        3955      6.47%      6.47% |       28598     46.75%     53.22% |       28617     46.78%    100.00%
system.ruby.L1Cache_Controller.Inv::total        61170                      
system.ruby.L1Cache_Controller.L0_Invalidate_Own |        2394      1.29%      1.29% |      116038     62.48%     63.77% |       67296     36.23%    100.00%
system.ruby.L1Cache_Controller.L0_Invalidate_Own::total       185728                      
system.ruby.L1Cache_Controller.L0_Invalidate_Else |         996      5.03%      5.03% |        8310     41.98%     47.01% |       10490     52.99%    100.00%
system.ruby.L1Cache_Controller.L0_Invalidate_Else::total        19796                      
system.ruby.L1Cache_Controller.L1_Replacement |      121121     30.54%     30.54% |      124178     31.31%     61.84% |      151356     38.16%    100.00%
system.ruby.L1Cache_Controller.L1_Replacement::total       396655                      
system.ruby.L1Cache_Controller.Fwd_GETX  |           6     33.33%     33.33% |           9     50.00%     83.33% |           3     16.67%    100.00%
system.ruby.L1Cache_Controller.Fwd_GETX::total           18                      
system.ruby.L1Cache_Controller.Fwd_GETS  |        3990      6.93%      6.93% |       28706     49.87%     56.81% |       24862     43.19%    100.00%
system.ruby.L1Cache_Controller.Fwd_GETS::total        57558                      
system.ruby.L1Cache_Controller.Data      |           0      0.00%      0.00% |           3     50.00%     50.00% |           3     50.00%    100.00%
system.ruby.L1Cache_Controller.Data::total            6                      
system.ruby.L1Cache_Controller.Data_Exclusive |        2489      1.52%      1.52% |       68541     41.79%     43.31% |       92981     56.69%    100.00%
system.ruby.L1Cache_Controller.Data_Exclusive::total       164011                      
system.ruby.L1Cache_Controller.DataS_fromL1 |          32      0.06%      0.06% |       24860     43.19%     43.25% |       32663     56.75%    100.00%
system.ruby.L1Cache_Controller.DataS_fromL1::total        57555                      
system.ruby.L1Cache_Controller.Data_all_Acks |      122902     57.23%     57.23% |       62034     28.89%     86.12% |       29815     13.88%    100.00%
system.ruby.L1Cache_Controller.Data_all_Acks::total       214751                      
system.ruby.L1Cache_Controller.L0_Ack    |        1078      1.10%      1.10% |       57941     59.30%     60.41% |       38686     39.59%    100.00%
system.ruby.L1Cache_Controller.L0_Ack::total        97705                      
system.ruby.L1Cache_Controller.Ack       |          39      0.06%      0.06% |       32283     52.78%     52.84% |       28842     47.16%    100.00%
system.ruby.L1Cache_Controller.Ack::total        61164                      
system.ruby.L1Cache_Controller.Ack_all   |          31      0.05%      0.05% |       28603     49.76%     49.82% |       28845     50.18%    100.00%
system.ruby.L1Cache_Controller.Ack_all::total        57479                      
system.ruby.L1Cache_Controller.WB_Ack    |      120633     42.93%     42.93% |       66618     23.71%     66.64% |       93753     33.36%    100.00%
system.ruby.L1Cache_Controller.WB_Ack::total       281004                      
system.ruby.L1Cache_Controller.NP.Load   |        2523      0.81%      0.81% |      154610     49.59%     50.40% |      154638     49.60%    100.00%
system.ruby.L1Cache_Controller.NP.Load::total       311771                      
system.ruby.L1Cache_Controller.NP.Store  |      122894     98.68%     98.68% |         828      0.66%     99.34% |         822      0.66%    100.00%
system.ruby.L1Cache_Controller.NP.Store::total       124544                      
system.ruby.L1Cache_Controller.NP.Inv    |         488      1.68%      1.68% |           4      0.01%      1.69% |       28591     98.31%    100.00%
system.ruby.L1Cache_Controller.NP.Inv::total        29083                      
system.ruby.L1Cache_Controller.I.Load    |           6    100.00%    100.00% |           0      0.00%    100.00% |           0      0.00%    100.00%
system.ruby.L1Cache_Controller.I.Load::total            6                      
system.ruby.L1Cache_Controller.I.Store   |           0      0.00%      0.00% |           0      0.00%      0.00% |           2    100.00%    100.00%
system.ruby.L1Cache_Controller.I.Store::total            2                      
system.ruby.L1Cache_Controller.I.L1_Replacement |           0      0.00%      0.00% |           6    100.00%    100.00% |           0      0.00%    100.00%
system.ruby.L1Cache_Controller.I.L1_Replacement::total            6                      
system.ruby.L1Cache_Controller.S.Load    |          10      4.48%      4.48% |         108     48.43%     52.91% |         105     47.09%    100.00%
system.ruby.L1Cache_Controller.S.Load::total          223                      
system.ruby.L1Cache_Controller.S.Store   |          31      0.05%      0.05% |       28599     49.76%     49.82% |       28840     50.18%    100.00%
system.ruby.L1Cache_Controller.S.Store::total        57470                      
system.ruby.L1Cache_Controller.S.L0_Invalidate_Own |           0      0.00%      0.00% |       57533     63.53%     63.53% |       33026     36.47%    100.00%
system.ruby.L1Cache_Controller.S.L0_Invalidate_Own::total        90559                      
system.ruby.L1Cache_Controller.S.L0_Invalidate_Else |          14     43.75%     43.75% |           3      9.38%     53.12% |          15     46.88%    100.00%
system.ruby.L1Cache_Controller.S.L0_Invalidate_Else::total           32                      
system.ruby.L1Cache_Controller.SS.Load   |          24      6.27%      6.27% |          89     23.24%     29.50% |         270     70.50%    100.00%
system.ruby.L1Cache_Controller.SS.Load::total          383                      
system.ruby.L1Cache_Controller.SS.Store  |           0      0.00%      0.00% |           1     33.33%     33.33% |           2     66.67%    100.00%
system.ruby.L1Cache_Controller.SS.Store::total            3                      
system.ruby.L1Cache_Controller.SS.Inv    |        3467     10.80%     10.80% |       28594     89.11%     99.92% |          26      0.08%    100.00%
system.ruby.L1Cache_Controller.SS.Inv::total        32087                      
system.ruby.L1Cache_Controller.SS.L1_Replacement |         488      0.42%      0.42% |       57554     49.77%     50.19% |       57603     49.81%    100.00%
system.ruby.L1Cache_Controller.SS.L1_Replacement::total       115645                      
system.ruby.L1Cache_Controller.E.WriteBack |         981      0.63%      0.63% |       67715     43.41%     44.04% |       87278     55.96%    100.00%
system.ruby.L1Cache_Controller.E.WriteBack::total       155974                      
system.ruby.L1Cache_Controller.E.L0_Invalidate_Own |        1068     52.66%     52.66% |         475     23.42%     76.08% |         485     23.92%    100.00%
system.ruby.L1Cache_Controller.E.L0_Invalidate_Own::total         2028                      
system.ruby.L1Cache_Controller.E.L0_Invalidate_Else |          14      0.26%      0.26% |         103      1.93%      2.19% |        5215     97.81%    100.00%
system.ruby.L1Cache_Controller.E.L0_Invalidate_Else::total         5332                      
system.ruby.L1Cache_Controller.EE.Load   |           0      0.00%      0.00% |           2     50.00%     50.00% |           2     50.00%    100.00%
system.ruby.L1Cache_Controller.EE.Load::total            4                      
system.ruby.L1Cache_Controller.EE.L1_Replacement |        1008     62.22%     62.22% |         300     18.52%     80.74% |         312     19.26%    100.00%
system.ruby.L1Cache_Controller.EE.L1_Replacement::total         1620                      
system.ruby.L1Cache_Controller.EE.Fwd_GETS |          12      0.23%      0.23% |          99      1.86%      2.09% |        5211     97.91%    100.00%
system.ruby.L1Cache_Controller.EE.Fwd_GETS::total         5322                      
system.ruby.L1Cache_Controller.M.WriteBack |      132498     27.92%     27.92% |      169207     35.66%     63.59% |      172784     36.41%    100.00%
system.ruby.L1Cache_Controller.M.WriteBack::total       474489                      
system.ruby.L1Cache_Controller.M.L0_Invalidate_Own |         129     46.57%     46.57% |          11      3.97%     50.54% |         137     49.46%    100.00%
system.ruby.L1Cache_Controller.M.L0_Invalidate_Own::total          277                      
system.ruby.L1Cache_Controller.M.L0_Invalidate_Else |         470     10.37%     10.37% |        4049     89.30%     99.67% |          15      0.33%    100.00%
system.ruby.L1Cache_Controller.M.L0_Invalidate_Else::total         4534                      
system.ruby.L1Cache_Controller.MM.Load   |        5997      2.04%      2.04% |      143823     48.99%     51.03% |      143749     48.97%    100.00%
system.ruby.L1Cache_Controller.MM.Load::total       293569                      
system.ruby.L1Cache_Controller.MM.Store  |        4372     99.30%     99.30% |          20      0.45%     99.75% |          11      0.25%    100.00%
system.ruby.L1Cache_Controller.MM.Store::total         4403                      
system.ruby.L1Cache_Controller.MM.L1_Replacement |      119625     42.82%     42.82% |       66318     23.74%     66.55% |       93441     33.45%    100.00%
system.ruby.L1Cache_Controller.MM.L1_Replacement::total       279384                      
system.ruby.L1Cache_Controller.MM.Fwd_GETX |           6     33.33%     33.33% |           9     50.00%     83.33% |           3     16.67%    100.00%
system.ruby.L1Cache_Controller.MM.Fwd_GETX::total           18                      
system.ruby.L1Cache_Controller.MM.Fwd_GETS |        3978      7.62%      7.62% |       28604     54.76%     62.38% |       19651     37.62%    100.00%
system.ruby.L1Cache_Controller.MM.Fwd_GETS::total        52233                      
system.ruby.L1Cache_Controller.IS.Data_Exclusive |        2489      1.52%      1.52% |       68541     41.79%     43.31% |       92981     56.69%    100.00%
system.ruby.L1Cache_Controller.IS.Data_Exclusive::total       164011                      
system.ruby.L1Cache_Controller.IS.DataS_fromL1 |          32      0.06%      0.06% |       24860     43.19%     43.25% |       32663     56.75%    100.00%
system.ruby.L1Cache_Controller.IS.DataS_fromL1::total        57555                      
system.ruby.L1Cache_Controller.IS.Data_all_Acks |           8      0.01%      0.01% |       61209     67.85%     67.86% |       28994     32.14%    100.00%
system.ruby.L1Cache_Controller.IS.Data_all_Acks::total        90211                      
system.ruby.L1Cache_Controller.IM.Data   |           0      0.00%      0.00% |           3     50.00%     50.00% |           3     50.00%    100.00%
system.ruby.L1Cache_Controller.IM.Data::total            6                      
system.ruby.L1Cache_Controller.IM.Data_all_Acks |      122894     98.68%     98.68% |         825      0.66%     99.34% |         821      0.66%    100.00%
system.ruby.L1Cache_Controller.IM.Data_all_Acks::total       124540                      
system.ruby.L1Cache_Controller.SM.Ack    |          39      0.06%      0.06% |       32283     52.78%     52.84% |       28842     47.16%    100.00%
system.ruby.L1Cache_Controller.SM.Ack::total        61164                      
system.ruby.L1Cache_Controller.SM.Ack_all |          31      0.05%      0.05% |       28603     49.76%     49.82% |       28845     50.18%    100.00%
system.ruby.L1Cache_Controller.SM.Ack_all::total        57479                      
system.ruby.L1Cache_Controller.M_I.WB_Ack |      120633     42.93%     42.93% |       66618     23.71%     66.64% |       93753     33.36%    100.00%
system.ruby.L1Cache_Controller.M_I.WB_Ack::total       281004                      
system.ruby.L1Cache_Controller.S_IL0.L0_Invalidate_Own |           0      0.00%      0.00% |       57533     63.53%     63.53% |       33026     36.47%    100.00%
system.ruby.L1Cache_Controller.S_IL0.L0_Invalidate_Own::total        90559                      
system.ruby.L1Cache_Controller.S_IL0.L0_Invalidate_Else |          14     43.75%     43.75% |           3      9.38%     53.12% |          15     46.88%    100.00%
system.ruby.L1Cache_Controller.S_IL0.L0_Invalidate_Else::total           32                      
system.ruby.L1Cache_Controller.S_IL0.L0_Ack |          14      0.02%      0.02% |       57536     63.51%     63.53% |       33041     36.47%    100.00%
system.ruby.L1Cache_Controller.S_IL0.L0_Ack::total        90591                      
system.ruby.L1Cache_Controller.E_IL0.L0_DataAck |          62     14.98%     14.98% |         177     42.75%     57.73% |         175     42.27%    100.00%
system.ruby.L1Cache_Controller.E_IL0.L0_DataAck::total          414                      
system.ruby.L1Cache_Controller.E_IL0.L0_Invalidate_Own |        1068     52.66%     52.66% |         475     23.42%     76.08% |         485     23.92%    100.00%
system.ruby.L1Cache_Controller.E_IL0.L0_Invalidate_Own::total         2028                      
system.ruby.L1Cache_Controller.E_IL0.L0_Invalidate_Else |          14      0.26%      0.26% |         103      1.93%      2.19% |        5215     97.81%    100.00%
system.ruby.L1Cache_Controller.E_IL0.L0_Invalidate_Else::total         5332                      
system.ruby.L1Cache_Controller.E_IL0.L0_Ack |        1020     14.68%     14.68% |         401      5.77%     20.46% |        5525     79.54%    100.00%
system.ruby.L1Cache_Controller.E_IL0.L0_Ack::total         6946                      
system.ruby.L1Cache_Controller.M_IL0.WriteBack |           0      0.00%      0.00% |           3    100.00%    100.00% |           0      0.00%    100.00%
system.ruby.L1Cache_Controller.M_IL0.WriteBack::total            3                      
system.ruby.L1Cache_Controller.M_IL0.L0_DataAck |         555     11.95%     11.95% |        4056     87.36%     99.31% |          32      0.69%    100.00%
system.ruby.L1Cache_Controller.M_IL0.L0_DataAck::total         4643                      
system.ruby.L1Cache_Controller.M_IL0.L0_Invalidate_Own |         129     46.57%     46.57% |          11      3.97%     50.54% |         137     49.46%    100.00%
system.ruby.L1Cache_Controller.M_IL0.L0_Invalidate_Own::total          277                      
system.ruby.L1Cache_Controller.M_IL0.L0_Invalidate_Else |         470     10.37%     10.37% |        4049     89.30%     99.67% |          15      0.33%    100.00%
system.ruby.L1Cache_Controller.M_IL0.L0_Invalidate_Else::total         4534                      
system.ruby.L1Cache_Controller.M_IL0.L0_Ack |          44     26.67%     26.67% |           1      0.61%     27.27% |         120     72.73%    100.00%
system.ruby.L1Cache_Controller.M_IL0.L0_Ack::total          165                      
system.ruby.L1Cache_Controller.MM_IL0.Fwd_GETS |           0      0.00%      0.00% |           3    100.00%    100.00% |           0      0.00%    100.00%
system.ruby.L1Cache_Controller.MM_IL0.Fwd_GETS::total            3                      
system.ruby.L1Cache_Controller.MM_IL0.L0_Ack |           0      0.00%      0.00% |           3    100.00%    100.00% |           0      0.00%    100.00%
system.ruby.L1Cache_Controller.MM_IL0.L0_Ack::total            3                      
system.ruby.L2Cache_Controller.L1_GETS         311784      0.00%      0.00%
system.ruby.L2Cache_Controller.L1_GETX         124546      0.00%      0.00%
system.ruby.L2Cache_Controller.L1_UPGRADE        57473      0.00%      0.00%
system.ruby.L2Cache_Controller.L1_PUTX         281004      0.00%      0.00%
system.ruby.L2Cache_Controller.Mem_Data        103625      0.00%      0.00%
system.ruby.L2Cache_Controller.WB_Data          37914      0.00%      0.00%
system.ruby.L2Cache_Controller.WB_Data_clean        19641      0.00%      0.00%
system.ruby.L2Cache_Controller.Unblock          57555      0.00%      0.00%
system.ruby.L2Cache_Controller.Exclusive_Unblock       346030      0.00%      0.00%
system.ruby.L2Cache_Controller.NP.L1_GETS         7897      0.00%      0.00%
system.ruby.L2Cache_Controller.NP.L1_GETX        95728      0.00%      0.00%
system.ruby.L2Cache_Controller.SS.L1_GETS        90193      0.00%      0.00%
system.ruby.L2Cache_Controller.SS.L1_GETX            6      0.00%      0.00%
system.ruby.L2Cache_Controller.SS.L1_UPGRADE        57473      0.00%      0.00%
system.ruby.L2Cache_Controller.M.L1_GETS       156123      0.00%      0.00%
system.ruby.L2Cache_Controller.M.L1_GETX        28794      0.00%      0.00%
system.ruby.L2Cache_Controller.MT.L1_GETS        57555      0.00%      0.00%
system.ruby.L2Cache_Controller.MT.L1_GETX           18      0.00%      0.00%
system.ruby.L2Cache_Controller.MT.L1_PUTX       281004      0.00%      0.00%
system.ruby.L2Cache_Controller.ISS.L1_GETS            9      0.00%      0.00%
system.ruby.L2Cache_Controller.ISS.Mem_Data         7888      0.00%      0.00%
system.ruby.L2Cache_Controller.IS.Mem_Data            9      0.00%      0.00%
system.ruby.L2Cache_Controller.IM.Mem_Data        95728      0.00%      0.00%
system.ruby.L2Cache_Controller.SS_MB.L1_GETS            2      0.00%      0.00%
system.ruby.L2Cache_Controller.SS_MB.Exclusive_Unblock        57479      0.00%      0.00%
system.ruby.L2Cache_Controller.MT_MB.L1_GETS            3      0.00%      0.00%
system.ruby.L2Cache_Controller.MT_MB.Exclusive_Unblock       288551      0.00%      0.00%
system.ruby.L2Cache_Controller.MT_IIB.L1_GETS            2      0.00%      0.00%
system.ruby.L2Cache_Controller.MT_IIB.WB_Data        37899      0.00%      0.00%
system.ruby.L2Cache_Controller.MT_IIB.WB_Data_clean        19603      0.00%      0.00%
system.ruby.L2Cache_Controller.MT_IIB.Unblock           53      0.00%      0.00%
system.ruby.L2Cache_Controller.MT_IB.WB_Data           15      0.00%      0.00%
system.ruby.L2Cache_Controller.MT_IB.WB_Data_clean           38      0.00%      0.00%
system.ruby.L2Cache_Controller.MT_SB.Unblock        57502      0.00%      0.00%

---------- End Simulation Statistics   ----------
