
---------- Begin Simulation Statistics ----------
sim_seconds                                  3.026484                       # Number of seconds simulated
sim_ticks                                3026483575500                       # Number of ticks simulated
final_tick                               3026483575500                       # Number of ticks from beginning of simulation (restored from checkpoints and never reset)
sim_freq                                 1000000000000                       # Frequency of simulated ticks
host_inst_rate                                 142337                       # Simulator instruction rate (inst/s)
host_op_rate                                   400971                       # Simulator op (including micro ops) rate (op/s)
host_tick_rate                              240570976                       # Simulator tick rate (ticks/s)
host_mem_usage                                1274104                       # Number of bytes of host memory used
host_seconds                                 12580.42                       # Real time elapsed on the host
sim_insts                                  1790657180                       # Number of instructions simulated
sim_ops                                    5044385905                       # Number of ops (including micro ops) simulated
system.voltage_domain.voltage                       1                       # Voltage in Volts
system.clk_domain.clock                          1000                       # Clock period in ticks
system.mem_ctrls.bytes_read::ruby.dir_cntrl0    113063872                       # Number of bytes read from this memory
system.mem_ctrls.bytes_read::total          113063872                       # Number of bytes read from this memory
system.mem_ctrls.bytes_written::ruby.dir_cntrl0     45099008                       # Number of bytes written to this memory
system.mem_ctrls.bytes_written::total        45099008                       # Number of bytes written to this memory
system.mem_ctrls.num_reads::ruby.dir_cntrl0      1766623                       # Number of read requests responded to by this memory
system.mem_ctrls.num_reads::total             1766623                       # Number of read requests responded to by this memory
system.mem_ctrls.num_writes::ruby.dir_cntrl0       704672                       # Number of write requests responded to by this memory
system.mem_ctrls.num_writes::total             704672                       # Number of write requests responded to by this memory
system.mem_ctrls.bw_read::ruby.dir_cntrl0     37358165                       # Total read bandwidth from this memory (bytes/s)
system.mem_ctrls.bw_read::total              37358165                       # Total read bandwidth from this memory (bytes/s)
system.mem_ctrls.bw_write::ruby.dir_cntrl0     14901455                       # Write bandwidth from this memory (bytes/s)
system.mem_ctrls.bw_write::total             14901455                       # Write bandwidth from this memory (bytes/s)
system.mem_ctrls.bw_total::ruby.dir_cntrl0     52259619                       # Total bandwidth to/from this memory (bytes/s)
system.mem_ctrls.bw_total::total             52259619                       # Total bandwidth to/from this memory (bytes/s)
system.mem_ctrls.readReqs                     1766623                       # Number of read requests accepted
system.mem_ctrls.writeReqs                     704672                       # Number of write requests accepted
system.mem_ctrls.readBursts                   1766623                       # Number of DRAM read bursts, including those serviced by the write queue
system.mem_ctrls.writeBursts                   704672                       # Number of DRAM write bursts, including those merged in the write queue
system.mem_ctrls.bytesReadDRAM              113049536                       # Total number of bytes read from DRAM
system.mem_ctrls.bytesReadWrQ                   14336                       # Total number of bytes read from write queue
system.mem_ctrls.bytesWritten                45097728                       # Total number of bytes written to DRAM
system.mem_ctrls.bytesReadSys               113063872                       # Total read bytes from the system interface side
system.mem_ctrls.bytesWrittenSys             45099008                       # Total written bytes from the system interface side
system.mem_ctrls.servicedByWrQ                    224                       # Number of DRAM read bursts serviced by the write queue
system.mem_ctrls.mergedWrBursts                     0                       # Number of DRAM write bursts merged with an existing one
system.mem_ctrls.neitherReadNorWriteReqs            0                       # Number of requests that are neither read nor write
system.mem_ctrls.perBankRdBursts::0            110744                       # Per bank write bursts
system.mem_ctrls.perBankRdBursts::1            109638                       # Per bank write bursts
system.mem_ctrls.perBankRdBursts::2            109481                       # Per bank write bursts
system.mem_ctrls.perBankRdBursts::3            109499                       # Per bank write bursts
system.mem_ctrls.perBankRdBursts::4            108313                       # Per bank write bursts
system.mem_ctrls.perBankRdBursts::5            110311                       # Per bank write bursts
system.mem_ctrls.perBankRdBursts::6            108901                       # Per bank write bursts
system.mem_ctrls.perBankRdBursts::7            110024                       # Per bank write bursts
system.mem_ctrls.perBankRdBursts::8            109405                       # Per bank write bursts
system.mem_ctrls.perBankRdBursts::9            112335                       # Per bank write bursts
system.mem_ctrls.perBankRdBursts::10           111500                       # Per bank write bursts
system.mem_ctrls.perBankRdBursts::11           111944                       # Per bank write bursts
system.mem_ctrls.perBankRdBursts::12           111762                       # Per bank write bursts
system.mem_ctrls.perBankRdBursts::13           110894                       # Per bank write bursts
system.mem_ctrls.perBankRdBursts::14           111568                       # Per bank write bursts
system.mem_ctrls.perBankRdBursts::15           110080                       # Per bank write bursts
system.mem_ctrls.perBankWrBursts::0             44469                       # Per bank write bursts
system.mem_ctrls.perBankWrBursts::1             43991                       # Per bank write bursts
system.mem_ctrls.perBankWrBursts::2             44326                       # Per bank write bursts
system.mem_ctrls.perBankWrBursts::3             43816                       # Per bank write bursts
system.mem_ctrls.perBankWrBursts::4             43214                       # Per bank write bursts
system.mem_ctrls.perBankWrBursts::5             43498                       # Per bank write bursts
system.mem_ctrls.perBankWrBursts::6             43812                       # Per bank write bursts
system.mem_ctrls.perBankWrBursts::7             43974                       # Per bank write bursts
system.mem_ctrls.perBankWrBursts::8             43768                       # Per bank write bursts
system.mem_ctrls.perBankWrBursts::9             44759                       # Per bank write bursts
system.mem_ctrls.perBankWrBursts::10            44603                       # Per bank write bursts
system.mem_ctrls.perBankWrBursts::11            44932                       # Per bank write bursts
system.mem_ctrls.perBankWrBursts::12            44008                       # Per bank write bursts
system.mem_ctrls.perBankWrBursts::13            43840                       # Per bank write bursts
system.mem_ctrls.perBankWrBursts::14            43948                       # Per bank write bursts
system.mem_ctrls.perBankWrBursts::15            43694                       # Per bank write bursts
system.mem_ctrls.numRdRetry                         0                       # Number of times read queue was full causing retry
system.mem_ctrls.numWrRetry                         0                       # Number of times write queue was full causing retry
system.mem_ctrls.totGap                  3026483481000                       # Total gap between requests
system.mem_ctrls.readPktSize::0                     0                       # Read request sizes (log2)
system.mem_ctrls.readPktSize::1                     0                       # Read request sizes (log2)
system.mem_ctrls.readPktSize::2                     0                       # Read request sizes (log2)
system.mem_ctrls.readPktSize::3                     0                       # Read request sizes (log2)
system.mem_ctrls.readPktSize::4                     0                       # Read request sizes (log2)
system.mem_ctrls.readPktSize::5                     0                       # Read request sizes (log2)
system.mem_ctrls.readPktSize::6               1766623                       # Read request sizes (log2)
system.mem_ctrls.writePktSize::0                    0                       # Write request sizes (log2)
system.mem_ctrls.writePktSize::1                    0                       # Write request sizes (log2)
system.mem_ctrls.writePktSize::2                    0                       # Write request sizes (log2)
system.mem_ctrls.writePktSize::3                    0                       # Write request sizes (log2)
system.mem_ctrls.writePktSize::4                    0                       # Write request sizes (log2)
system.mem_ctrls.writePktSize::5                    0                       # Write request sizes (log2)
system.mem_ctrls.writePktSize::6               704672                       # Write request sizes (log2)
system.mem_ctrls.rdQLenPdf::0                 1592652                       # What read queue length does an incoming req see
system.mem_ctrls.rdQLenPdf::1                   72203                       # What read queue length does an incoming req see
system.mem_ctrls.rdQLenPdf::2                   45857                       # What read queue length does an incoming req see
system.mem_ctrls.rdQLenPdf::3                   26219                       # What read queue length does an incoming req see
system.mem_ctrls.rdQLenPdf::4                   13433                       # What read queue length does an incoming req see
system.mem_ctrls.rdQLenPdf::5                    7692                       # What read queue length does an incoming req see
system.mem_ctrls.rdQLenPdf::6                    5334                       # What read queue length does an incoming req see
system.mem_ctrls.rdQLenPdf::7                    3009                       # What read queue length does an incoming req see
system.mem_ctrls.rdQLenPdf::8                       0                       # What read queue length does an incoming req see
system.mem_ctrls.rdQLenPdf::9                       0                       # What read queue length does an incoming req see
system.mem_ctrls.rdQLenPdf::10                      0                       # What read queue length does an incoming req see
system.mem_ctrls.rdQLenPdf::11                      0                       # What read queue length does an incoming req see
system.mem_ctrls.rdQLenPdf::12                      0                       # What read queue length does an incoming req see
system.mem_ctrls.rdQLenPdf::13                      0                       # What read queue length does an incoming req see
system.mem_ctrls.rdQLenPdf::14                      0                       # What read queue length does an incoming req see
system.mem_ctrls.rdQLenPdf::15                      0                       # What read queue length does an incoming req see
system.mem_ctrls.rdQLenPdf::16                      0                       # What read queue length does an incoming req see
system.mem_ctrls.rdQLenPdf::17                      0                       # What read queue length does an incoming req see
system.mem_ctrls.rdQLenPdf::18                      0                       # What read queue length does an incoming req see
system.mem_ctrls.rdQLenPdf::19                      0                       # What read queue length does an incoming req see
system.mem_ctrls.rdQLenPdf::20                      0                       # What read queue length does an incoming req see
system.mem_ctrls.rdQLenPdf::21                      0                       # What read queue length does an incoming req see
system.mem_ctrls.rdQLenPdf::22                      0                       # What read queue length does an incoming req see
system.mem_ctrls.rdQLenPdf::23                      0                       # What read queue length does an incoming req see
system.mem_ctrls.rdQLenPdf::24                      0                       # What read queue length does an incoming req see
system.mem_ctrls.rdQLenPdf::25                      0                       # What read queue length does an incoming req see
system.mem_ctrls.rdQLenPdf::26                      0                       # What read queue length does an incoming req see
system.mem_ctrls.rdQLenPdf::27                      0                       # What read queue length does an incoming req see
system.mem_ctrls.rdQLenPdf::28                      0                       # What read queue length does an incoming req see
system.mem_ctrls.rdQLenPdf::29                      0                       # What read queue length does an incoming req see
system.mem_ctrls.rdQLenPdf::30                      0                       # What read queue length does an incoming req see
system.mem_ctrls.rdQLenPdf::31                      0                       # What read queue length does an incoming req see
system.mem_ctrls.wrQLenPdf::0                       1                       # What write queue length does an incoming req see
system.mem_ctrls.wrQLenPdf::1                       1                       # What write queue length does an incoming req see
system.mem_ctrls.wrQLenPdf::2                       1                       # What write queue length does an incoming req see
system.mem_ctrls.wrQLenPdf::3                       1                       # What write queue length does an incoming req see
system.mem_ctrls.wrQLenPdf::4                       1                       # What write queue length does an incoming req see
system.mem_ctrls.wrQLenPdf::5                       1                       # What write queue length does an incoming req see
system.mem_ctrls.wrQLenPdf::6                       1                       # What write queue length does an incoming req see
system.mem_ctrls.wrQLenPdf::7                       1                       # What write queue length does an incoming req see
system.mem_ctrls.wrQLenPdf::8                       1                       # What write queue length does an incoming req see
system.mem_ctrls.wrQLenPdf::9                       1                       # What write queue length does an incoming req see
system.mem_ctrls.wrQLenPdf::10                      1                       # What write queue length does an incoming req see
system.mem_ctrls.wrQLenPdf::11                      1                       # What write queue length does an incoming req see
system.mem_ctrls.wrQLenPdf::12                      1                       # What write queue length does an incoming req see
system.mem_ctrls.wrQLenPdf::13                      1                       # What write queue length does an incoming req see
system.mem_ctrls.wrQLenPdf::14                      1                       # What write queue length does an incoming req see
system.mem_ctrls.wrQLenPdf::15                   1558                       # What write queue length does an incoming req see
system.mem_ctrls.wrQLenPdf::16                   1618                       # What write queue length does an incoming req see
system.mem_ctrls.wrQLenPdf::17                  37440                       # What write queue length does an incoming req see
system.mem_ctrls.wrQLenPdf::18                  38872                       # What write queue length does an incoming req see
system.mem_ctrls.wrQLenPdf::19                  40180                       # What write queue length does an incoming req see
system.mem_ctrls.wrQLenPdf::20                  41719                       # What write queue length does an incoming req see
system.mem_ctrls.wrQLenPdf::21                  43314                       # What write queue length does an incoming req see
system.mem_ctrls.wrQLenPdf::22                  44516                       # What write queue length does an incoming req see
system.mem_ctrls.wrQLenPdf::23                  45254                       # What write queue length does an incoming req see
system.mem_ctrls.wrQLenPdf::24                  45654                       # What write queue length does an incoming req see
system.mem_ctrls.wrQLenPdf::25                  45811                       # What write queue length does an incoming req see
system.mem_ctrls.wrQLenPdf::26                  45907                       # What write queue length does an incoming req see
system.mem_ctrls.wrQLenPdf::27                  45949                       # What write queue length does an incoming req see
system.mem_ctrls.wrQLenPdf::28                  45626                       # What write queue length does an incoming req see
system.mem_ctrls.wrQLenPdf::29                  45258                       # What write queue length does an incoming req see
system.mem_ctrls.wrQLenPdf::30                  45180                       # What write queue length does an incoming req see
system.mem_ctrls.wrQLenPdf::31                  45070                       # What write queue length does an incoming req see
system.mem_ctrls.wrQLenPdf::32                  44734                       # What write queue length does an incoming req see
system.mem_ctrls.wrQLenPdf::33                    546                       # What write queue length does an incoming req see
system.mem_ctrls.wrQLenPdf::34                    205                       # What write queue length does an incoming req see
system.mem_ctrls.wrQLenPdf::35                    101                       # What write queue length does an incoming req see
system.mem_ctrls.wrQLenPdf::36                     54                       # What write queue length does an incoming req see
system.mem_ctrls.wrQLenPdf::37                     30                       # What write queue length does an incoming req see
system.mem_ctrls.wrQLenPdf::38                     12                       # What write queue length does an incoming req see
system.mem_ctrls.wrQLenPdf::39                     12                       # What write queue length does an incoming req see
system.mem_ctrls.wrQLenPdf::40                      9                       # What write queue length does an incoming req see
system.mem_ctrls.wrQLenPdf::41                      3                       # What write queue length does an incoming req see
system.mem_ctrls.wrQLenPdf::42                      4                       # What write queue length does an incoming req see
system.mem_ctrls.wrQLenPdf::43                      3                       # What write queue length does an incoming req see
system.mem_ctrls.wrQLenPdf::44                      4                       # What write queue length does an incoming req see
system.mem_ctrls.wrQLenPdf::45                      4                       # What write queue length does an incoming req see
system.mem_ctrls.wrQLenPdf::46                      3                       # What write queue length does an incoming req see
system.mem_ctrls.wrQLenPdf::47                      4                       # What write queue length does an incoming req see
system.mem_ctrls.wrQLenPdf::48                      2                       # What write queue length does an incoming req see
system.mem_ctrls.wrQLenPdf::49                      1                       # What write queue length does an incoming req see
system.mem_ctrls.wrQLenPdf::50                      0                       # What write queue length does an incoming req see
system.mem_ctrls.wrQLenPdf::51                      0                       # What write queue length does an incoming req see
system.mem_ctrls.wrQLenPdf::52                      0                       # What write queue length does an incoming req see
system.mem_ctrls.wrQLenPdf::53                      0                       # What write queue length does an incoming req see
system.mem_ctrls.wrQLenPdf::54                      0                       # What write queue length does an incoming req see
system.mem_ctrls.wrQLenPdf::55                      0                       # What write queue length does an incoming req see
system.mem_ctrls.wrQLenPdf::56                      0                       # What write queue length does an incoming req see
system.mem_ctrls.wrQLenPdf::57                      0                       # What write queue length does an incoming req see
system.mem_ctrls.wrQLenPdf::58                      0                       # What write queue length does an incoming req see
system.mem_ctrls.wrQLenPdf::59                      0                       # What write queue length does an incoming req see
system.mem_ctrls.wrQLenPdf::60                      0                       # What write queue length does an incoming req see
system.mem_ctrls.wrQLenPdf::61                      0                       # What write queue length does an incoming req see
system.mem_ctrls.wrQLenPdf::62                      0                       # What write queue length does an incoming req see
system.mem_ctrls.wrQLenPdf::63                      0                       # What write queue length does an incoming req see
system.mem_ctrls.bytesPerActivate::samples       724813                       # Bytes accessed per row activation
system.mem_ctrls.bytesPerActivate::mean    218.189023                       # Bytes accessed per row activation
system.mem_ctrls.bytesPerActivate::gmean   142.539187                       # Bytes accessed per row activation
system.mem_ctrls.bytesPerActivate::stdev   226.249992                       # Bytes accessed per row activation
system.mem_ctrls.bytesPerActivate::0-127       338557     46.71%     46.71% # Bytes accessed per row activation
system.mem_ctrls.bytesPerActivate::128-255       141021     19.46%     66.17% # Bytes accessed per row activation
system.mem_ctrls.bytesPerActivate::256-383       109539     15.11%     81.28% # Bytes accessed per row activation
system.mem_ctrls.bytesPerActivate::384-511        40363      5.57%     86.85% # Bytes accessed per row activation
system.mem_ctrls.bytesPerActivate::512-639        32797      4.52%     91.37% # Bytes accessed per row activation
system.mem_ctrls.bytesPerActivate::640-767        24541      3.39%     94.76% # Bytes accessed per row activation
system.mem_ctrls.bytesPerActivate::768-895        17177      2.37%     97.13% # Bytes accessed per row activation
system.mem_ctrls.bytesPerActivate::896-1023        10889      1.50%     98.63% # Bytes accessed per row activation
system.mem_ctrls.bytesPerActivate::1024-1151         9929      1.37%    100.00% # Bytes accessed per row activation
system.mem_ctrls.bytesPerActivate::total       724813                       # Bytes accessed per row activation
system.mem_ctrls.rdPerTurnAround::samples        43840                       # Reads before turning the bus around for writes
system.mem_ctrls.rdPerTurnAround::mean      40.291766                       # Reads before turning the bus around for writes
system.mem_ctrls.rdPerTurnAround::gmean     27.821604                       # Reads before turning the bus around for writes
system.mem_ctrls.rdPerTurnAround::stdev   1601.360602                       # Reads before turning the bus around for writes
system.mem_ctrls.rdPerTurnAround::0-16383        43839    100.00%    100.00% # Reads before turning the bus around for writes
system.mem_ctrls.rdPerTurnAround::327680-344063            1      0.00%    100.00% # Reads before turning the bus around for writes
system.mem_ctrls.rdPerTurnAround::total         43840                       # Reads before turning the bus around for writes
system.mem_ctrls.wrPerTurnAround::samples        43840                       # Writes before turning the bus around for reads
system.mem_ctrls.wrPerTurnAround::mean      16.073266                       # Writes before turning the bus around for reads
system.mem_ctrls.wrPerTurnAround::gmean     16.069200                       # Writes before turning the bus around for reads
system.mem_ctrls.wrPerTurnAround::stdev      0.375055                       # Writes before turning the bus around for reads
system.mem_ctrls.wrPerTurnAround::16            42216     96.30%     96.30% # Writes before turning the bus around for reads
system.mem_ctrls.wrPerTurnAround::17               43      0.10%     96.39% # Writes before turning the bus around for reads
system.mem_ctrls.wrPerTurnAround::18             1574      3.59%     99.98% # Writes before turning the bus around for reads
system.mem_ctrls.wrPerTurnAround::19                7      0.02%    100.00% # Writes before turning the bus around for reads
system.mem_ctrls.wrPerTurnAround::total         43840                       # Writes before turning the bus around for reads
system.mem_ctrls.totQLat                  35185396891                       # Total ticks spent queuing
system.mem_ctrls.totMemAccLat             68305378141                       # Total ticks spent from burst creation until serviced by the DRAM
system.mem_ctrls.totBusLat                 8831995000                       # Total ticks spent in databus transfers
system.mem_ctrls.avgQLat                     19919.28                       # Average queueing delay per DRAM burst
system.mem_ctrls.avgBusLat                    5000.00                       # Average bus latency per DRAM burst
system.mem_ctrls.avgMemAccLat                38669.28                       # Average memory access latency per DRAM burst
system.mem_ctrls.avgRdBW                        37.35                       # Average DRAM read bandwidth in MiByte/s
system.mem_ctrls.avgWrBW                        14.90                       # Average achieved write bandwidth in MiByte/s
system.mem_ctrls.avgRdBWSys                     37.36                       # Average system read bandwidth in MiByte/s
system.mem_ctrls.avgWrBWSys                     14.90                       # Average system write bandwidth in MiByte/s
system.mem_ctrls.peakBW                      12800.00                       # Theoretical peak bandwidth in MiByte/s
system.mem_ctrls.busUtil                         0.41                       # Data bus utilization in percentage
system.mem_ctrls.busUtilRead                     0.29                       # Data bus utilization in percentage for reads
system.mem_ctrls.busUtilWrite                    0.12                       # Data bus utilization in percentage for writes
system.mem_ctrls.avgRdQLen                       1.01                       # Average read queue length when enqueuing
system.mem_ctrls.avgWrQLen                      21.86                       # Average write queue length when enqueuing
system.mem_ctrls.readRowHits                  1378836                       # Number of row buffer hits during reads
system.mem_ctrls.writeRowHits                  367393                       # Number of row buffer hits during writes
system.mem_ctrls.readRowHitRate                 78.06                       # Row buffer hit rate for reads
system.mem_ctrls.writeRowHitRate                52.14                       # Row buffer hit rate for writes
system.mem_ctrls.avgGap                    1224654.88                       # Average gap between requests
system.mem_ctrls.pageHitRate                    70.67                       # Row buffer hit rate, read and write combined
system.mem_ctrls_0.actEnergy               2727852120                       # Energy for activate commands per rank (pJ)
system.mem_ctrls_0.preEnergy               1488411375                       # Energy for precharge commands per rank (pJ)
system.mem_ctrls_0.readEnergy              6839609400                       # Energy for read commands per rank (pJ)
system.mem_ctrls_0.writeEnergy             2275063200                       # Energy for write commands per rank (pJ)
system.mem_ctrls_0.refreshEnergy         197674729200                       # Energy for refresh commands per rank (pJ)
system.mem_ctrls_0.actBackEnergy         553169970810                       # Energy for active background per rank (pJ)
system.mem_ctrls_0.preBackEnergy         1330649205750                       # Energy for precharge background per rank (pJ)
system.mem_ctrls_0.totalEnergy           2094824841855                       # Total energy per rank (pJ)
system.mem_ctrls_0.averagePower            692.166188                       # Core power per rank (mW)
system.mem_ctrls_0.memoryStateTime::IDLE 2210131614000                       # Time in different power states
system.mem_ctrls_0.memoryStateTime::REF  101060700000                       # Time in different power states
system.mem_ctrls_0.memoryStateTime::PRE_PDN            0                       # Time in different power states
system.mem_ctrls_0.memoryStateTime::ACT  715284403500                       # Time in different power states
system.mem_ctrls_0.memoryStateTime::ACT_PDN            0                       # Time in different power states
system.mem_ctrls_1.actEnergy               2751507360                       # Energy for activate commands per rank (pJ)
system.mem_ctrls_1.preEnergy               1501318500                       # Energy for precharge commands per rank (pJ)
system.mem_ctrls_1.readEnergy              6937678800                       # Energy for read commands per rank (pJ)
system.mem_ctrls_1.writeEnergy             2290978080                       # Energy for write commands per rank (pJ)
system.mem_ctrls_1.refreshEnergy         197674729200                       # Energy for refresh commands per rank (pJ)
system.mem_ctrls_1.actBackEnergy         555691318785                       # Energy for active background per rank (pJ)
system.mem_ctrls_1.preBackEnergy         1328437497000                       # Energy for precharge background per rank (pJ)
system.mem_ctrls_1.totalEnergy           2095285027725                       # Total energy per rank (pJ)
system.mem_ctrls_1.averagePower            692.318241                       # Core power per rank (mW)
system.mem_ctrls_1.memoryStateTime::IDLE 2206429448250                       # Time in different power states
system.mem_ctrls_1.memoryStateTime::REF  101060700000                       # Time in different power states
system.mem_ctrls_1.memoryStateTime::PRE_PDN            0                       # Time in different power states
system.mem_ctrls_1.memoryStateTime::ACT  718987197250                       # Time in different power states
system.mem_ctrls_1.memoryStateTime::ACT_PDN            0                       # Time in different power states
system.cpu_voltage_domain.voltage                   1                       # Voltage in Volts
system.cpu_clk_domain.clock                       500                       # Clock period in ticks
system.cpu0.apic_clk_domain.clock                8000                       # Clock period in ticks
system.cpu0.workload.num_syscalls                 272                       # Number of system calls
system.cpu0.numCycles                      6052967151                       # number of cpu cycles simulated
system.cpu0.numWorkItemsStarted                     0                       # number of work items this cpu started
system.cpu0.numWorkItemsCompleted                   0                       # number of work items this cpu completed
system.cpu0.committedInsts                 1674515820                       # Number of instructions committed
system.cpu0.committedOps                   4812115801                       # Number of ops (including micro ops) committed
system.cpu0.num_int_alu_accesses           4538215794                       # Number of integer alu accesses
system.cpu0.num_fp_alu_accesses             116281176                       # Number of float alu accesses
system.cpu0.num_func_calls                  163074934                       # number of times a function call or return occured
system.cpu0.num_conditional_control_insts    369595792                       # number of instructions that are conditional controls
system.cpu0.num_int_insts                  4538215794                       # number of integer instructions
system.cpu0.num_fp_insts                    116281176                       # number of float instructions
system.cpu0.num_int_register_reads         9555768289                       # number of times the integer registers were read
system.cpu0.num_int_register_writes        4529894385                       # number of times the integer registers were written
system.cpu0.num_fp_register_reads           186868397                       # number of times the floating registers were read
system.cpu0.num_fp_register_writes           91388796                       # number of times the floating registers were written
system.cpu0.num_cc_register_reads          3841171229                       # number of times the CC registers were read
system.cpu0.num_cc_register_writes         1441376572                       # number of times the CC registers were written
system.cpu0.num_mem_refs                    725568208                       # number of memory refs
system.cpu0.num_load_insts                  440434511                       # Number of load instructions
system.cpu0.num_store_insts                 285133697                       # Number of store instructions
system.cpu0.num_idle_cycles                  0.002000                       # Number of idle cycles
system.cpu0.num_busy_cycles              6052967150.998000                       # Number of busy cycles
system.cpu0.not_idle_fraction                1.000000                       # Percentage of non-idle cycles
system.cpu0.idle_fraction                    0.000000                       # Percentage of idle cycles
system.cpu0.Branches                        610848760                       # Number of branches fetched
system.cpu0.op_class::No_OpClass             94599461      1.97%      1.97% # Class of executed instruction
system.cpu0.op_class::IntAlu               3493262305     72.59%     74.56% # Class of executed instruction
system.cpu0.op_class::IntMult                     490      0.00%     74.56% # Class of executed instruction
system.cpu0.op_class::IntDiv                407297348      8.46%     83.02% # Class of executed instruction
system.cpu0.op_class::FloatAdd               91387989      1.90%     84.92% # Class of executed instruction
system.cpu0.op_class::FloatCmp                      0      0.00%     84.92% # Class of executed instruction
system.cpu0.op_class::FloatCvt                      0      0.00%     84.92% # Class of executed instruction
system.cpu0.op_class::FloatMult                     0      0.00%     84.92% # Class of executed instruction
system.cpu0.op_class::FloatDiv                      0      0.00%     84.92% # Class of executed instruction
system.cpu0.op_class::FloatSqrt                     0      0.00%     84.92% # Class of executed instruction
system.cpu0.op_class::SimdAdd                       0      0.00%     84.92% # Class of executed instruction
system.cpu0.op_class::SimdAddAcc                    0      0.00%     84.92% # Class of executed instruction
system.cpu0.op_class::SimdAlu                       0      0.00%     84.92% # Class of executed instruction
system.cpu0.op_class::SimdCmp                       0      0.00%     84.92% # Class of executed instruction
system.cpu0.op_class::SimdCvt                       0      0.00%     84.92% # Class of executed instruction
system.cpu0.op_class::SimdMisc                      0      0.00%     84.92% # Class of executed instruction
system.cpu0.op_class::SimdMult                      0      0.00%     84.92% # Class of executed instruction
system.cpu0.op_class::SimdMultAcc                   0      0.00%     84.92% # Class of executed instruction
system.cpu0.op_class::SimdShift                     0      0.00%     84.92% # Class of executed instruction
system.cpu0.op_class::SimdShiftAcc                  0      0.00%     84.92% # Class of executed instruction
system.cpu0.op_class::SimdSqrt                      0      0.00%     84.92% # Class of executed instruction
system.cpu0.op_class::SimdFloatAdd                  0      0.00%     84.92% # Class of executed instruction
system.cpu0.op_class::SimdFloatAlu                  0      0.00%     84.92% # Class of executed instruction
system.cpu0.op_class::SimdFloatCmp                  0      0.00%     84.92% # Class of executed instruction
system.cpu0.op_class::SimdFloatCvt                  0      0.00%     84.92% # Class of executed instruction
system.cpu0.op_class::SimdFloatDiv                  0      0.00%     84.92% # Class of executed instruction
system.cpu0.op_class::SimdFloatMisc                 0      0.00%     84.92% # Class of executed instruction
system.cpu0.op_class::SimdFloatMult                 0      0.00%     84.92% # Class of executed instruction
system.cpu0.op_class::SimdFloatMultAcc              0      0.00%     84.92% # Class of executed instruction
system.cpu0.op_class::SimdFloatSqrt                 0      0.00%     84.92% # Class of executed instruction
system.cpu0.op_class::MemRead               440434511      9.15%     94.07% # Class of executed instruction
system.cpu0.op_class::MemWrite              285133697      5.93%    100.00% # Class of executed instruction
system.cpu0.op_class::IprAccess                     0      0.00%    100.00% # Class of executed instruction
system.cpu0.op_class::InstPrefetch                  0      0.00%    100.00% # Class of executed instruction
system.cpu0.op_class::total                4812115801                       # Class of executed instruction
system.cpu1.apic_clk_domain.clock                8000                       # Clock period in ticks
system.cpu1.numCycles                      6052589749                       # number of cpu cycles simulated
system.cpu1.numWorkItemsStarted                     0                       # number of work items this cpu started
system.cpu1.numWorkItemsCompleted                   0                       # number of work items this cpu completed
system.cpu1.committedInsts                   14517670                       # Number of instructions committed
system.cpu1.committedOps                     29033763                       # Number of ops (including micro ops) committed
system.cpu1.num_int_alu_accesses             21791563                       # Number of integer alu accesses
system.cpu1.num_fp_alu_accesses              14221533                       # Number of float alu accesses
system.cpu1.num_func_calls                      40491                       # number of times a function call or return occured
system.cpu1.num_conditional_control_insts      1783388                       # number of instructions that are conditional controls
system.cpu1.num_int_insts                    21791563                       # number of integer instructions
system.cpu1.num_fp_insts                     14221533                       # number of float instructions
system.cpu1.num_int_register_reads           38295446                       # number of times the integer registers were read
system.cpu1.num_int_register_writes          13006901                       # number of times the integer registers were written
system.cpu1.num_fp_register_reads            21544607                       # number of times the floating registers were read
system.cpu1.num_fp_register_writes           14201308                       # number of times the floating registers were written
system.cpu1.num_cc_register_reads            10720595                       # number of times the CC registers were read
system.cpu1.num_cc_register_writes           10714264                       # number of times the CC registers were written
system.cpu1.num_mem_refs                      7083855                       # number of memory refs
system.cpu1.num_load_insts                    7043298                       # Number of load instructions
system.cpu1.num_store_insts                     40557                       # Number of store instructions
system.cpu1.num_idle_cycles              5982138216.921105                       # Number of idle cycles
system.cpu1.num_busy_cycles              70451532.078895                       # Number of busy cycles
system.cpu1.not_idle_fraction                0.011640                       # Percentage of non-idle cycles
system.cpu1.idle_fraction                    0.988360                       # Percentage of idle cycles
system.cpu1.Branches                          1845679                       # Number of branches fetched
system.cpu1.op_class::No_OpClass                    2      0.00%      0.00% # Class of executed instruction
system.cpu1.op_class::IntAlu                 14647022     50.45%     50.45% # Class of executed instruction
system.cpu1.op_class::IntMult                   60671      0.21%     50.66% # Class of executed instruction
system.cpu1.op_class::IntDiv                       14      0.00%     50.66% # Class of executed instruction
system.cpu1.op_class::FloatAdd                7242199     24.94%     75.60% # Class of executed instruction
system.cpu1.op_class::FloatCmp                      0      0.00%     75.60% # Class of executed instruction
system.cpu1.op_class::FloatCvt                      0      0.00%     75.60% # Class of executed instruction
system.cpu1.op_class::FloatMult                     0      0.00%     75.60% # Class of executed instruction
system.cpu1.op_class::FloatDiv                      0      0.00%     75.60% # Class of executed instruction
system.cpu1.op_class::FloatSqrt                     0      0.00%     75.60% # Class of executed instruction
system.cpu1.op_class::SimdAdd                       0      0.00%     75.60% # Class of executed instruction
system.cpu1.op_class::SimdAddAcc                    0      0.00%     75.60% # Class of executed instruction
system.cpu1.op_class::SimdAlu                       0      0.00%     75.60% # Class of executed instruction
system.cpu1.op_class::SimdCmp                       0      0.00%     75.60% # Class of executed instruction
system.cpu1.op_class::SimdCvt                       0      0.00%     75.60% # Class of executed instruction
system.cpu1.op_class::SimdMisc                      0      0.00%     75.60% # Class of executed instruction
system.cpu1.op_class::SimdMult                      0      0.00%     75.60% # Class of executed instruction
system.cpu1.op_class::SimdMultAcc                   0      0.00%     75.60% # Class of executed instruction
system.cpu1.op_class::SimdShift                     0      0.00%     75.60% # Class of executed instruction
system.cpu1.op_class::SimdShiftAcc                  0      0.00%     75.60% # Class of executed instruction
system.cpu1.op_class::SimdSqrt                      0      0.00%     75.60% # Class of executed instruction
system.cpu1.op_class::SimdFloatAdd                  0      0.00%     75.60% # Class of executed instruction
system.cpu1.op_class::SimdFloatAlu                  0      0.00%     75.60% # Class of executed instruction
system.cpu1.op_class::SimdFloatCmp                  0      0.00%     75.60% # Class of executed instruction
system.cpu1.op_class::SimdFloatCvt                  0      0.00%     75.60% # Class of executed instruction
system.cpu1.op_class::SimdFloatDiv                  0      0.00%     75.60% # Class of executed instruction
system.cpu1.op_class::SimdFloatMisc                 0      0.00%     75.60% # Class of executed instruction
system.cpu1.op_class::SimdFloatMult                 0      0.00%     75.60% # Class of executed instruction
system.cpu1.op_class::SimdFloatMultAcc              0      0.00%     75.60% # Class of executed instruction
system.cpu1.op_class::SimdFloatSqrt                 0      0.00%     75.60% # Class of executed instruction
system.cpu1.op_class::MemRead                 7043298     24.26%     99.86% # Class of executed instruction
system.cpu1.op_class::MemWrite                  40557      0.14%    100.00% # Class of executed instruction
system.cpu1.op_class::IprAccess                     0      0.00%    100.00% # Class of executed instruction
system.cpu1.op_class::InstPrefetch                  0      0.00%    100.00% # Class of executed instruction
system.cpu1.op_class::total                  29033763                       # Class of executed instruction
system.cpu2.apic_clk_domain.clock                8000                       # Clock period in ticks
system.cpu2.numCycles                      6052589969                       # number of cpu cycles simulated
system.cpu2.numWorkItemsStarted                     0                       # number of work items this cpu started
system.cpu2.numWorkItemsCompleted                   0                       # number of work items this cpu completed
system.cpu2.committedInsts                   14517670                       # Number of instructions committed
system.cpu2.committedOps                     29033763                       # Number of ops (including micro ops) committed
system.cpu2.num_int_alu_accesses             21791563                       # Number of integer alu accesses
system.cpu2.num_fp_alu_accesses              14221533                       # Number of float alu accesses
system.cpu2.num_func_calls                      40491                       # number of times a function call or return occured
system.cpu2.num_conditional_control_insts      1783388                       # number of instructions that are conditional controls
system.cpu2.num_int_insts                    21791563                       # number of integer instructions
system.cpu2.num_fp_insts                     14221533                       # number of float instructions
system.cpu2.num_int_register_reads           38295446                       # number of times the integer registers were read
system.cpu2.num_int_register_writes          13006901                       # number of times the integer registers were written
system.cpu2.num_fp_register_reads            21544607                       # number of times the floating registers were read
system.cpu2.num_fp_register_writes           14201308                       # number of times the floating registers were written
system.cpu2.num_cc_register_reads            10720595                       # number of times the CC registers were read
system.cpu2.num_cc_register_writes           10714264                       # number of times the CC registers were written
system.cpu2.num_mem_refs                      7083855                       # number of memory refs
system.cpu2.num_load_insts                    7043298                       # Number of load instructions
system.cpu2.num_store_insts                     40557                       # Number of store instructions
system.cpu2.num_idle_cycles              5982139074.320447                       # Number of idle cycles
system.cpu2.num_busy_cycles              70450894.679553                       # Number of busy cycles
system.cpu2.not_idle_fraction                0.011640                       # Percentage of non-idle cycles
system.cpu2.idle_fraction                    0.988360                       # Percentage of idle cycles
system.cpu2.Branches                          1845679                       # Number of branches fetched
system.cpu2.op_class::No_OpClass                    2      0.00%      0.00% # Class of executed instruction
system.cpu2.op_class::IntAlu                 14647022     50.45%     50.45% # Class of executed instruction
system.cpu2.op_class::IntMult                   60671      0.21%     50.66% # Class of executed instruction
system.cpu2.op_class::IntDiv                       14      0.00%     50.66% # Class of executed instruction
system.cpu2.op_class::FloatAdd                7242199     24.94%     75.60% # Class of executed instruction
system.cpu2.op_class::FloatCmp                      0      0.00%     75.60% # Class of executed instruction
system.cpu2.op_class::FloatCvt                      0      0.00%     75.60% # Class of executed instruction
system.cpu2.op_class::FloatMult                     0      0.00%     75.60% # Class of executed instruction
system.cpu2.op_class::FloatDiv                      0      0.00%     75.60% # Class of executed instruction
system.cpu2.op_class::FloatSqrt                     0      0.00%     75.60% # Class of executed instruction
system.cpu2.op_class::SimdAdd                       0      0.00%     75.60% # Class of executed instruction
system.cpu2.op_class::SimdAddAcc                    0      0.00%     75.60% # Class of executed instruction
system.cpu2.op_class::SimdAlu                       0      0.00%     75.60% # Class of executed instruction
system.cpu2.op_class::SimdCmp                       0      0.00%     75.60% # Class of executed instruction
system.cpu2.op_class::SimdCvt                       0      0.00%     75.60% # Class of executed instruction
system.cpu2.op_class::SimdMisc                      0      0.00%     75.60% # Class of executed instruction
system.cpu2.op_class::SimdMult                      0      0.00%     75.60% # Class of executed instruction
system.cpu2.op_class::SimdMultAcc                   0      0.00%     75.60% # Class of executed instruction
system.cpu2.op_class::SimdShift                     0      0.00%     75.60% # Class of executed instruction
system.cpu2.op_class::SimdShiftAcc                  0      0.00%     75.60% # Class of executed instruction
system.cpu2.op_class::SimdSqrt                      0      0.00%     75.60% # Class of executed instruction
system.cpu2.op_class::SimdFloatAdd                  0      0.00%     75.60% # Class of executed instruction
system.cpu2.op_class::SimdFloatAlu                  0      0.00%     75.60% # Class of executed instruction
system.cpu2.op_class::SimdFloatCmp                  0      0.00%     75.60% # Class of executed instruction
system.cpu2.op_class::SimdFloatCvt                  0      0.00%     75.60% # Class of executed instruction
system.cpu2.op_class::SimdFloatDiv                  0      0.00%     75.60% # Class of executed instruction
system.cpu2.op_class::SimdFloatMisc                 0      0.00%     75.60% # Class of executed instruction
system.cpu2.op_class::SimdFloatMult                 0      0.00%     75.60% # Class of executed instruction
system.cpu2.op_class::SimdFloatMultAcc              0      0.00%     75.60% # Class of executed instruction
system.cpu2.op_class::SimdFloatSqrt                 0      0.00%     75.60% # Class of executed instruction
system.cpu2.op_class::MemRead                 7043298     24.26%     99.86% # Class of executed instruction
system.cpu2.op_class::MemWrite                  40557      0.14%    100.00% # Class of executed instruction
system.cpu2.op_class::IprAccess                     0      0.00%    100.00% # Class of executed instruction
system.cpu2.op_class::InstPrefetch                  0      0.00%    100.00% # Class of executed instruction
system.cpu2.op_class::total                  29033763                       # Class of executed instruction
system.cpu3.apic_clk_domain.clock                8000                       # Clock period in ticks
system.cpu3.numCycles                      6052590456                       # number of cpu cycles simulated
system.cpu3.numWorkItemsStarted                     0                       # number of work items this cpu started
system.cpu3.numWorkItemsCompleted                   0                       # number of work items this cpu completed
system.cpu3.committedInsts                   14517670                       # Number of instructions committed
system.cpu3.committedOps                     29033763                       # Number of ops (including micro ops) committed
system.cpu3.num_int_alu_accesses             21791563                       # Number of integer alu accesses
system.cpu3.num_fp_alu_accesses              14221533                       # Number of float alu accesses
system.cpu3.num_func_calls                      40491                       # number of times a function call or return occured
system.cpu3.num_conditional_control_insts      1783388                       # number of instructions that are conditional controls
system.cpu3.num_int_insts                    21791563                       # number of integer instructions
system.cpu3.num_fp_insts                     14221533                       # number of float instructions
system.cpu3.num_int_register_reads           38295446                       # number of times the integer registers were read
system.cpu3.num_int_register_writes          13006901                       # number of times the integer registers were written
system.cpu3.num_fp_register_reads            21544607                       # number of times the floating registers were read
system.cpu3.num_fp_register_writes           14201308                       # number of times the floating registers were written
system.cpu3.num_cc_register_reads            10720595                       # number of times the CC registers were read
system.cpu3.num_cc_register_writes           10714264                       # number of times the CC registers were written
system.cpu3.num_mem_refs                      7083855                       # number of memory refs
system.cpu3.num_load_insts                    7043298                       # Number of load instructions
system.cpu3.num_store_insts                     40557                       # Number of store instructions
system.cpu3.num_idle_cycles              5982139671.644649                       # Number of idle cycles
system.cpu3.num_busy_cycles              70450784.355351                       # Number of busy cycles
system.cpu3.not_idle_fraction                0.011640                       # Percentage of non-idle cycles
system.cpu3.idle_fraction                    0.988360                       # Percentage of idle cycles
system.cpu3.Branches                          1845679                       # Number of branches fetched
system.cpu3.op_class::No_OpClass                    2      0.00%      0.00% # Class of executed instruction
system.cpu3.op_class::IntAlu                 14647022     50.45%     50.45% # Class of executed instruction
system.cpu3.op_class::IntMult                   60671      0.21%     50.66% # Class of executed instruction
system.cpu3.op_class::IntDiv                       14      0.00%     50.66% # Class of executed instruction
system.cpu3.op_class::FloatAdd                7242199     24.94%     75.60% # Class of executed instruction
system.cpu3.op_class::FloatCmp                      0      0.00%     75.60% # Class of executed instruction
system.cpu3.op_class::FloatCvt                      0      0.00%     75.60% # Class of executed instruction
system.cpu3.op_class::FloatMult                     0      0.00%     75.60% # Class of executed instruction
system.cpu3.op_class::FloatDiv                      0      0.00%     75.60% # Class of executed instruction
system.cpu3.op_class::FloatSqrt                     0      0.00%     75.60% # Class of executed instruction
system.cpu3.op_class::SimdAdd                       0      0.00%     75.60% # Class of executed instruction
system.cpu3.op_class::SimdAddAcc                    0      0.00%     75.60% # Class of executed instruction
system.cpu3.op_class::SimdAlu                       0      0.00%     75.60% # Class of executed instruction
system.cpu3.op_class::SimdCmp                       0      0.00%     75.60% # Class of executed instruction
system.cpu3.op_class::SimdCvt                       0      0.00%     75.60% # Class of executed instruction
system.cpu3.op_class::SimdMisc                      0      0.00%     75.60% # Class of executed instruction
system.cpu3.op_class::SimdMult                      0      0.00%     75.60% # Class of executed instruction
system.cpu3.op_class::SimdMultAcc                   0      0.00%     75.60% # Class of executed instruction
system.cpu3.op_class::SimdShift                     0      0.00%     75.60% # Class of executed instruction
system.cpu3.op_class::SimdShiftAcc                  0      0.00%     75.60% # Class of executed instruction
system.cpu3.op_class::SimdSqrt                      0      0.00%     75.60% # Class of executed instruction
system.cpu3.op_class::SimdFloatAdd                  0      0.00%     75.60% # Class of executed instruction
system.cpu3.op_class::SimdFloatAlu                  0      0.00%     75.60% # Class of executed instruction
system.cpu3.op_class::SimdFloatCmp                  0      0.00%     75.60% # Class of executed instruction
system.cpu3.op_class::SimdFloatCvt                  0      0.00%     75.60% # Class of executed instruction
system.cpu3.op_class::SimdFloatDiv                  0      0.00%     75.60% # Class of executed instruction
system.cpu3.op_class::SimdFloatMisc                 0      0.00%     75.60% # Class of executed instruction
system.cpu3.op_class::SimdFloatMult                 0      0.00%     75.60% # Class of executed instruction
system.cpu3.op_class::SimdFloatMultAcc              0      0.00%     75.60% # Class of executed instruction
system.cpu3.op_class::SimdFloatSqrt                 0      0.00%     75.60% # Class of executed instruction
system.cpu3.op_class::MemRead                 7043298     24.26%     99.86% # Class of executed instruction
system.cpu3.op_class::MemWrite                  40557      0.14%    100.00% # Class of executed instruction
system.cpu3.op_class::IprAccess                     0      0.00%    100.00% # Class of executed instruction
system.cpu3.op_class::InstPrefetch                  0      0.00%    100.00% # Class of executed instruction
system.cpu3.op_class::total                  29033763                       # Class of executed instruction
system.cpu4.apic_clk_domain.clock                8000                       # Clock period in ticks
system.cpu4.numCycles                      6052590066                       # number of cpu cycles simulated
system.cpu4.numWorkItemsStarted                     0                       # number of work items this cpu started
system.cpu4.numWorkItemsCompleted                   0                       # number of work items this cpu completed
system.cpu4.committedInsts                   14517670                       # Number of instructions committed
system.cpu4.committedOps                     29033763                       # Number of ops (including micro ops) committed
system.cpu4.num_int_alu_accesses             21791563                       # Number of integer alu accesses
system.cpu4.num_fp_alu_accesses              14221533                       # Number of float alu accesses
system.cpu4.num_func_calls                      40491                       # number of times a function call or return occured
system.cpu4.num_conditional_control_insts      1783388                       # number of instructions that are conditional controls
system.cpu4.num_int_insts                    21791563                       # number of integer instructions
system.cpu4.num_fp_insts                     14221533                       # number of float instructions
system.cpu4.num_int_register_reads           38295446                       # number of times the integer registers were read
system.cpu4.num_int_register_writes          13006901                       # number of times the integer registers were written
system.cpu4.num_fp_register_reads            21544607                       # number of times the floating registers were read
system.cpu4.num_fp_register_writes           14201308                       # number of times the floating registers were written
system.cpu4.num_cc_register_reads            10720595                       # number of times the CC registers were read
system.cpu4.num_cc_register_writes           10714264                       # number of times the CC registers were written
system.cpu4.num_mem_refs                      7083855                       # number of memory refs
system.cpu4.num_load_insts                    7043298                       # Number of load instructions
system.cpu4.num_store_insts                     40557                       # Number of store instructions
system.cpu4.num_idle_cycles              5982140279.122299                       # Number of idle cycles
system.cpu4.num_busy_cycles              70449786.877701                       # Number of busy cycles
system.cpu4.not_idle_fraction                0.011640                       # Percentage of non-idle cycles
system.cpu4.idle_fraction                    0.988360                       # Percentage of idle cycles
system.cpu4.Branches                          1845679                       # Number of branches fetched
system.cpu4.op_class::No_OpClass                    2      0.00%      0.00% # Class of executed instruction
system.cpu4.op_class::IntAlu                 14647022     50.45%     50.45% # Class of executed instruction
system.cpu4.op_class::IntMult                   60671      0.21%     50.66% # Class of executed instruction
system.cpu4.op_class::IntDiv                       14      0.00%     50.66% # Class of executed instruction
system.cpu4.op_class::FloatAdd                7242199     24.94%     75.60% # Class of executed instruction
system.cpu4.op_class::FloatCmp                      0      0.00%     75.60% # Class of executed instruction
system.cpu4.op_class::FloatCvt                      0      0.00%     75.60% # Class of executed instruction
system.cpu4.op_class::FloatMult                     0      0.00%     75.60% # Class of executed instruction
system.cpu4.op_class::FloatDiv                      0      0.00%     75.60% # Class of executed instruction
system.cpu4.op_class::FloatSqrt                     0      0.00%     75.60% # Class of executed instruction
system.cpu4.op_class::SimdAdd                       0      0.00%     75.60% # Class of executed instruction
system.cpu4.op_class::SimdAddAcc                    0      0.00%     75.60% # Class of executed instruction
system.cpu4.op_class::SimdAlu                       0      0.00%     75.60% # Class of executed instruction
system.cpu4.op_class::SimdCmp                       0      0.00%     75.60% # Class of executed instruction
system.cpu4.op_class::SimdCvt                       0      0.00%     75.60% # Class of executed instruction
system.cpu4.op_class::SimdMisc                      0      0.00%     75.60% # Class of executed instruction
system.cpu4.op_class::SimdMult                      0      0.00%     75.60% # Class of executed instruction
system.cpu4.op_class::SimdMultAcc                   0      0.00%     75.60% # Class of executed instruction
system.cpu4.op_class::SimdShift                     0      0.00%     75.60% # Class of executed instruction
system.cpu4.op_class::SimdShiftAcc                  0      0.00%     75.60% # Class of executed instruction
system.cpu4.op_class::SimdSqrt                      0      0.00%     75.60% # Class of executed instruction
system.cpu4.op_class::SimdFloatAdd                  0      0.00%     75.60% # Class of executed instruction
system.cpu4.op_class::SimdFloatAlu                  0      0.00%     75.60% # Class of executed instruction
system.cpu4.op_class::SimdFloatCmp                  0      0.00%     75.60% # Class of executed instruction
system.cpu4.op_class::SimdFloatCvt                  0      0.00%     75.60% # Class of executed instruction
system.cpu4.op_class::SimdFloatDiv                  0      0.00%     75.60% # Class of executed instruction
system.cpu4.op_class::SimdFloatMisc                 0      0.00%     75.60% # Class of executed instruction
system.cpu4.op_class::SimdFloatMult                 0      0.00%     75.60% # Class of executed instruction
system.cpu4.op_class::SimdFloatMultAcc              0      0.00%     75.60% # Class of executed instruction
system.cpu4.op_class::SimdFloatSqrt                 0      0.00%     75.60% # Class of executed instruction
system.cpu4.op_class::MemRead                 7043298     24.26%     99.86% # Class of executed instruction
system.cpu4.op_class::MemWrite                  40557      0.14%    100.00% # Class of executed instruction
system.cpu4.op_class::IprAccess                     0      0.00%    100.00% # Class of executed instruction
system.cpu4.op_class::InstPrefetch                  0      0.00%    100.00% # Class of executed instruction
system.cpu4.op_class::total                  29033763                       # Class of executed instruction
system.cpu5.apic_clk_domain.clock                8000                       # Clock period in ticks
system.cpu5.numCycles                      6052590554                       # number of cpu cycles simulated
system.cpu5.numWorkItemsStarted                     0                       # number of work items this cpu started
system.cpu5.numWorkItemsCompleted                   0                       # number of work items this cpu completed
system.cpu5.committedInsts                   14517670                       # Number of instructions committed
system.cpu5.committedOps                     29033763                       # Number of ops (including micro ops) committed
system.cpu5.num_int_alu_accesses             21791563                       # Number of integer alu accesses
system.cpu5.num_fp_alu_accesses              14221533                       # Number of float alu accesses
system.cpu5.num_func_calls                      40491                       # number of times a function call or return occured
system.cpu5.num_conditional_control_insts      1783388                       # number of instructions that are conditional controls
system.cpu5.num_int_insts                    21791563                       # number of integer instructions
system.cpu5.num_fp_insts                     14221533                       # number of float instructions
system.cpu5.num_int_register_reads           38295446                       # number of times the integer registers were read
system.cpu5.num_int_register_writes          13006901                       # number of times the integer registers were written
system.cpu5.num_fp_register_reads            21544607                       # number of times the floating registers were read
system.cpu5.num_fp_register_writes           14201308                       # number of times the floating registers were written
system.cpu5.num_cc_register_reads            10720595                       # number of times the CC registers were read
system.cpu5.num_cc_register_writes           10714264                       # number of times the CC registers were written
system.cpu5.num_mem_refs                      7083855                       # number of memory refs
system.cpu5.num_load_insts                    7043298                       # Number of load instructions
system.cpu5.num_store_insts                     40557                       # Number of store instructions
system.cpu5.num_idle_cycles              5982141462.398555                       # Number of idle cycles
system.cpu5.num_busy_cycles              70449091.601445                       # Number of busy cycles
system.cpu5.not_idle_fraction                0.011639                       # Percentage of non-idle cycles
system.cpu5.idle_fraction                    0.988361                       # Percentage of idle cycles
system.cpu5.Branches                          1845679                       # Number of branches fetched
system.cpu5.op_class::No_OpClass                    2      0.00%      0.00% # Class of executed instruction
system.cpu5.op_class::IntAlu                 14647022     50.45%     50.45% # Class of executed instruction
system.cpu5.op_class::IntMult                   60671      0.21%     50.66% # Class of executed instruction
system.cpu5.op_class::IntDiv                       14      0.00%     50.66% # Class of executed instruction
system.cpu5.op_class::FloatAdd                7242199     24.94%     75.60% # Class of executed instruction
system.cpu5.op_class::FloatCmp                      0      0.00%     75.60% # Class of executed instruction
system.cpu5.op_class::FloatCvt                      0      0.00%     75.60% # Class of executed instruction
system.cpu5.op_class::FloatMult                     0      0.00%     75.60% # Class of executed instruction
system.cpu5.op_class::FloatDiv                      0      0.00%     75.60% # Class of executed instruction
system.cpu5.op_class::FloatSqrt                     0      0.00%     75.60% # Class of executed instruction
system.cpu5.op_class::SimdAdd                       0      0.00%     75.60% # Class of executed instruction
system.cpu5.op_class::SimdAddAcc                    0      0.00%     75.60% # Class of executed instruction
system.cpu5.op_class::SimdAlu                       0      0.00%     75.60% # Class of executed instruction
system.cpu5.op_class::SimdCmp                       0      0.00%     75.60% # Class of executed instruction
system.cpu5.op_class::SimdCvt                       0      0.00%     75.60% # Class of executed instruction
system.cpu5.op_class::SimdMisc                      0      0.00%     75.60% # Class of executed instruction
system.cpu5.op_class::SimdMult                      0      0.00%     75.60% # Class of executed instruction
system.cpu5.op_class::SimdMultAcc                   0      0.00%     75.60% # Class of executed instruction
system.cpu5.op_class::SimdShift                     0      0.00%     75.60% # Class of executed instruction
system.cpu5.op_class::SimdShiftAcc                  0      0.00%     75.60% # Class of executed instruction
system.cpu5.op_class::SimdSqrt                      0      0.00%     75.60% # Class of executed instruction
system.cpu5.op_class::SimdFloatAdd                  0      0.00%     75.60% # Class of executed instruction
system.cpu5.op_class::SimdFloatAlu                  0      0.00%     75.60% # Class of executed instruction
system.cpu5.op_class::SimdFloatCmp                  0      0.00%     75.60% # Class of executed instruction
system.cpu5.op_class::SimdFloatCvt                  0      0.00%     75.60% # Class of executed instruction
system.cpu5.op_class::SimdFloatDiv                  0      0.00%     75.60% # Class of executed instruction
system.cpu5.op_class::SimdFloatMisc                 0      0.00%     75.60% # Class of executed instruction
system.cpu5.op_class::SimdFloatMult                 0      0.00%     75.60% # Class of executed instruction
system.cpu5.op_class::SimdFloatMultAcc              0      0.00%     75.60% # Class of executed instruction
system.cpu5.op_class::SimdFloatSqrt                 0      0.00%     75.60% # Class of executed instruction
system.cpu5.op_class::MemRead                 7043298     24.26%     99.86% # Class of executed instruction
system.cpu5.op_class::MemWrite                  40557      0.14%    100.00% # Class of executed instruction
system.cpu5.op_class::IprAccess                     0      0.00%    100.00% # Class of executed instruction
system.cpu5.op_class::InstPrefetch                  0      0.00%    100.00% # Class of executed instruction
system.cpu5.op_class::total                  29033763                       # Class of executed instruction
system.cpu6.apic_clk_domain.clock                8000                       # Clock period in ticks
system.cpu6.numCycles                      6052590651                       # number of cpu cycles simulated
system.cpu6.numWorkItemsStarted                     0                       # number of work items this cpu started
system.cpu6.numWorkItemsCompleted                   0                       # number of work items this cpu completed
system.cpu6.committedInsts                   14517670                       # Number of instructions committed
system.cpu6.committedOps                     29033763                       # Number of ops (including micro ops) committed
system.cpu6.num_int_alu_accesses             21791563                       # Number of integer alu accesses
system.cpu6.num_fp_alu_accesses              14221533                       # Number of float alu accesses
system.cpu6.num_func_calls                      40491                       # number of times a function call or return occured
system.cpu6.num_conditional_control_insts      1783388                       # number of instructions that are conditional controls
system.cpu6.num_int_insts                    21791563                       # number of integer instructions
system.cpu6.num_fp_insts                     14221533                       # number of float instructions
system.cpu6.num_int_register_reads           38295446                       # number of times the integer registers were read
system.cpu6.num_int_register_writes          13006901                       # number of times the integer registers were written
system.cpu6.num_fp_register_reads            21544607                       # number of times the floating registers were read
system.cpu6.num_fp_register_writes           14201308                       # number of times the floating registers were written
system.cpu6.num_cc_register_reads            10720595                       # number of times the CC registers were read
system.cpu6.num_cc_register_writes           10714264                       # number of times the CC registers were written
system.cpu6.num_mem_refs                      7083855                       # number of memory refs
system.cpu6.num_load_insts                    7043298                       # Number of load instructions
system.cpu6.num_store_insts                     40557                       # Number of store instructions
system.cpu6.num_idle_cycles              5982142436.214912                       # Number of idle cycles
system.cpu6.num_busy_cycles              70448214.785088                       # Number of busy cycles
system.cpu6.not_idle_fraction                0.011639                       # Percentage of non-idle cycles
system.cpu6.idle_fraction                    0.988361                       # Percentage of idle cycles
system.cpu6.Branches                          1845679                       # Number of branches fetched
system.cpu6.op_class::No_OpClass                    2      0.00%      0.00% # Class of executed instruction
system.cpu6.op_class::IntAlu                 14647022     50.45%     50.45% # Class of executed instruction
system.cpu6.op_class::IntMult                   60671      0.21%     50.66% # Class of executed instruction
system.cpu6.op_class::IntDiv                       14      0.00%     50.66% # Class of executed instruction
system.cpu6.op_class::FloatAdd                7242199     24.94%     75.60% # Class of executed instruction
system.cpu6.op_class::FloatCmp                      0      0.00%     75.60% # Class of executed instruction
system.cpu6.op_class::FloatCvt                      0      0.00%     75.60% # Class of executed instruction
system.cpu6.op_class::FloatMult                     0      0.00%     75.60% # Class of executed instruction
system.cpu6.op_class::FloatDiv                      0      0.00%     75.60% # Class of executed instruction
system.cpu6.op_class::FloatSqrt                     0      0.00%     75.60% # Class of executed instruction
system.cpu6.op_class::SimdAdd                       0      0.00%     75.60% # Class of executed instruction
system.cpu6.op_class::SimdAddAcc                    0      0.00%     75.60% # Class of executed instruction
system.cpu6.op_class::SimdAlu                       0      0.00%     75.60% # Class of executed instruction
system.cpu6.op_class::SimdCmp                       0      0.00%     75.60% # Class of executed instruction
system.cpu6.op_class::SimdCvt                       0      0.00%     75.60% # Class of executed instruction
system.cpu6.op_class::SimdMisc                      0      0.00%     75.60% # Class of executed instruction
system.cpu6.op_class::SimdMult                      0      0.00%     75.60% # Class of executed instruction
system.cpu6.op_class::SimdMultAcc                   0      0.00%     75.60% # Class of executed instruction
system.cpu6.op_class::SimdShift                     0      0.00%     75.60% # Class of executed instruction
system.cpu6.op_class::SimdShiftAcc                  0      0.00%     75.60% # Class of executed instruction
system.cpu6.op_class::SimdSqrt                      0      0.00%     75.60% # Class of executed instruction
system.cpu6.op_class::SimdFloatAdd                  0      0.00%     75.60% # Class of executed instruction
system.cpu6.op_class::SimdFloatAlu                  0      0.00%     75.60% # Class of executed instruction
system.cpu6.op_class::SimdFloatCmp                  0      0.00%     75.60% # Class of executed instruction
system.cpu6.op_class::SimdFloatCvt                  0      0.00%     75.60% # Class of executed instruction
system.cpu6.op_class::SimdFloatDiv                  0      0.00%     75.60% # Class of executed instruction
system.cpu6.op_class::SimdFloatMisc                 0      0.00%     75.60% # Class of executed instruction
system.cpu6.op_class::SimdFloatMult                 0      0.00%     75.60% # Class of executed instruction
system.cpu6.op_class::SimdFloatMultAcc              0      0.00%     75.60% # Class of executed instruction
system.cpu6.op_class::SimdFloatSqrt                 0      0.00%     75.60% # Class of executed instruction
system.cpu6.op_class::MemRead                 7043298     24.26%     99.86% # Class of executed instruction
system.cpu6.op_class::MemWrite                  40557      0.14%    100.00% # Class of executed instruction
system.cpu6.op_class::IprAccess                     0      0.00%    100.00% # Class of executed instruction
system.cpu6.op_class::InstPrefetch                  0      0.00%    100.00% # Class of executed instruction
system.cpu6.op_class::total                  29033763                       # Class of executed instruction
system.cpu7.apic_clk_domain.clock                8000                       # Clock period in ticks
system.cpu7.numCycles                      6052590749                       # number of cpu cycles simulated
system.cpu7.numWorkItemsStarted                     0                       # number of work items this cpu started
system.cpu7.numWorkItemsCompleted                   0                       # number of work items this cpu completed
system.cpu7.committedInsts                   14517670                       # Number of instructions committed
system.cpu7.committedOps                     29033763                       # Number of ops (including micro ops) committed
system.cpu7.num_int_alu_accesses             21791563                       # Number of integer alu accesses
system.cpu7.num_fp_alu_accesses              14221533                       # Number of float alu accesses
system.cpu7.num_func_calls                      40491                       # number of times a function call or return occured
[...]
system.ruby.L1Cache_Controller.EE.L1_Replacement::total        54078                      
system.ruby.L1Cache_Controller.EE.Fwd_GETX |           1     33.33%     33.33% |           0      0.00%     33.33% |           0      0.00%     33.33% |           1     33.33%     66.67% |           0      0.00%     66.67% |           0      0.00%     66.67% |           0      0.00%     66.67% |           1     33.33%    100.00% |           0      0.00%    100.00%
system.ruby.L1Cache_Controller.EE.Fwd_GETX::total            3                      
system.ruby.L1Cache_Controller.EE.Fwd_GETS |           7      0.01%      0.01% |       11778     14.82%     14.83% |       62242     78.31%     93.14% |        4345      5.47%     98.61% |         240      0.30%     98.91% |          21      0.03%     98.94% |         767      0.97%     99.90% |          30      0.04%     99.94% |          47      0.06%    100.00%
system.ruby.L1Cache_Controller.EE.Fwd_GETS::total        79477                      
system.ruby.L1Cache_Controller.M.WriteBack |     2271270     88.44%     88.44% |       36085      1.41%     89.84% |       33891      1.32%     91.16% |       37571      1.46%     92.62% |       37743      1.47%     94.09% |       38476      1.50%     95.59% |       37807      1.47%     97.06% |       37418      1.46%     98.52% |       37999      1.48%    100.00%
system.ruby.L1Cache_Controller.M.WriteBack::total      2568260                      
system.ruby.L1Cache_Controller.M.L0_Invalidate_Own |       16415     62.03%     62.03% |        1259      4.76%     66.79% |        1229      4.64%     71.43% |        1239      4.68%     76.12% |        1242      4.69%     80.81% |        1306      4.94%     85.75% |        1257      4.75%     90.50% |        1212      4.58%     95.08% |        1303      4.92%    100.00%
system.ruby.L1Cache_Controller.M.L0_Invalidate_Own::total        26462                      
system.ruby.L1Cache_Controller.M.L0_Invalidate_Else |         837     44.95%     44.95% |         190     10.20%     55.16% |         123      6.61%     61.76% |         100      5.37%     67.13% |         148      7.95%     75.08% |          97      5.21%     80.29% |         123      6.61%     86.90% |         144      7.73%     94.63% |         100      5.37%    100.00%
system.ruby.L1Cache_Controller.M.L0_Invalidate_Else::total         1862                      
system.ruby.L1Cache_Controller.MM.Load   |         122      0.04%      0.04% |       36278     12.17%     12.21% |       33983     11.40%     23.61% |       37653     12.63%     36.24% |       37879     12.71%     48.94% |       38624     12.96%     61.90% |       37935     12.72%     74.62% |       37513     12.58%     87.21% |       38145     12.79%    100.00%
system.ruby.L1Cache_Controller.MM.Load::total       298132                      
system.ruby.L1Cache_Controller.MM.Store  |          97    100.00%    100.00% |           0      0.00%    100.00% |           0      0.00%    100.00% |           0      0.00%    100.00% |           0      0.00%    100.00% |           0      0.00%    100.00% |           0      0.00%    100.00% |           0      0.00%    100.00% |           0      0.00%    100.00%
system.ruby.L1Cache_Controller.MM.Store::total           97                      
system.ruby.L1Cache_Controller.MM.Inv    |       13965     22.72%     22.72% |       12599     20.49%     43.21% |        4897      7.97%     51.18% |        1954      3.18%     54.36% |       11292     18.37%     72.73% |        4625      7.52%     80.25% |        3352      5.45%     85.70% |        5891      9.58%     95.28% |        2899      4.72%    100.00%
system.ruby.L1Cache_Controller.MM.Inv::total        61474                      
system.ruby.L1Cache_Controller.MM.L1_Replacement |     2272945     51.86%     51.86% |      257856      5.88%     57.75% |      269331      6.15%     63.89% |      267251      6.10%     69.99% |      257139      5.87%     75.86% |      263412      6.01%     81.87% |      265578      6.06%     87.93% |      263572      6.01%     93.94% |      265593      6.06%    100.00%
system.ruby.L1Cache_Controller.MM.L1_Replacement::total      4382677                      
system.ruby.L1Cache_Controller.MM.Fwd_GETX |           1      3.85%      3.85% |           4     15.38%     19.23% |           3     11.54%     30.77% |           3     11.54%     42.31% |           4     15.38%     57.69% |           4     15.38%     73.08% |           3     11.54%     84.62% |           3     11.54%     96.15% |           1      3.85%    100.00%
system.ruby.L1Cache_Controller.MM.Fwd_GETX::total           26                      
system.ruby.L1Cache_Controller.MM.Fwd_GETS |        2457     10.82%     10.82% |           7      0.03%     10.85% |       17112     75.33%     86.18% |        1336      5.88%     92.06% |           5      0.02%     92.08% |         923      4.06%     96.14% |           6      0.03%     96.17% |           6      0.03%     96.20% |         864      3.80%    100.00%
system.ruby.L1Cache_Controller.MM.Fwd_GETS::total        22716                      
system.ruby.L1Cache_Controller.IS.Data_Exclusive |       10020      0.43%      0.43% |      286992     12.45%     12.88% |      359577     15.59%     28.47% |      279744     12.13%     40.60% |      273652     11.87%     52.47% |      273722     11.87%     64.34% |      274256     11.89%     76.24% |      273892     11.88%     88.11% |      274118     11.89%    100.00%
system.ruby.L1Cache_Controller.IS.Data_Exclusive::total      2305973                      
system.ruby.L1Cache_Controller.IS.DataS_fromL1 |          78      0.08%      0.08% |        2517      2.46%      2.54% |        8853      8.66%     11.20% |       72629     71.07%     82.27% |        2330      2.28%     84.55% |        1945      1.90%     86.46% |        8326      8.15%     94.60% |        1702      1.67%     96.27% |        3813      3.73%    100.00%
system.ruby.L1Cache_Controller.IS.DataS_fromL1::total       102193                      
system.ruby.L1Cache_Controller.IS.Data_all_Acks |          15      0.00%      0.00% |      123747     13.74%     13.74% |       47318      5.25%     19.00% |       59617      6.62%     25.62% |      135539     15.05%     40.67% |      135258     15.02%     55.69% |      129100     14.34%     70.03% |      136414     15.15%     85.18% |      133477     14.82%    100.00%
system.ruby.L1Cache_Controller.IS.Data_all_Acks::total       900485                      
system.ruby.L1Cache_Controller.IM.Data   |           1    100.00%    100.00% |           0      0.00%    100.00% |           0      0.00%    100.00% |           0      0.00%    100.00% |           0      0.00%    100.00% |           0      0.00%    100.00% |           0      0.00%    100.00% |           0      0.00%    100.00% |           0      0.00%    100.00%
system.ruby.L1Cache_Controller.IM.Data::total            1                      
system.ruby.L1Cache_Controller.IM.Data_all_Acks |     2288406     99.55%     99.55% |        1284      0.06%     99.61% |        1291      0.06%     99.66% |        1288      0.06%     99.72% |        1285      0.06%     99.78% |        1285      0.06%     99.83% |        1283      0.06%     99.89% |        1292      0.06%     99.94% |        1288      0.06%    100.00%
system.ruby.L1Cache_Controller.IM.Data_all_Acks::total      2298702                      
system.ruby.L1Cache_Controller.SM.Ack    |         152     95.00%     95.00% |           1      0.62%     95.62% |           1      0.62%     96.25% |           1      0.62%     96.87% |           1      0.62%     97.50% |           1      0.62%     98.12% |           1      0.62%     98.75% |           1      0.62%     99.37% |           1      0.62%    100.00%
system.ruby.L1Cache_Controller.SM.Ack::total          160                      
system.ruby.L1Cache_Controller.SM.Ack_all |          80     90.91%     90.91% |           1      1.14%     92.05% |           1      1.14%     93.18% |           1      1.14%     94.32% |           1      1.14%     95.45% |           1      1.14%     96.59% |           1      1.14%     97.73% |           1      1.14%     98.86% |           1      1.14%    100.00%
system.ruby.L1Cache_Controller.SM.Ack_all::total           88                      
system.ruby.L1Cache_Controller.M_I.Inv   |           0      0.00%      0.00% |           0      0.00%      0.00% |           0      0.00%      0.00% |           1     12.50%     12.50% |           0      0.00%     12.50% |           0      0.00%     12.50% |           7     87.50%    100.00% |           0      0.00%    100.00% |           0      0.00%    100.00%
system.ruby.L1Cache_Controller.M_I.Inv::total            8                      
system.ruby.L1Cache_Controller.M_I.WB_Ack |     2280019     51.39%     51.39% |      263567      5.94%     57.33% |      276313      6.23%     63.56% |      272918      6.15%     69.71% |      262962      5.93%     75.64% |      269224      6.07%     81.70% |      271186      6.11%     87.82% |      269181      6.07%     93.88% |      271377      6.12%    100.00%
system.ruby.L1Cache_Controller.M_I.WB_Ack::total      4436747                      
system.ruby.L1Cache_Controller.SINK_WB_ACK.WB_Ack |           0      0.00%      0.00% |           0      0.00%      0.00% |           0      0.00%      0.00% |           1     12.50%     12.50% |           0      0.00%     12.50% |           0      0.00%     12.50% |           7     87.50%    100.00% |           0      0.00%    100.00% |           0      0.00%    100.00%
system.ruby.L1Cache_Controller.SINK_WB_ACK.WB_Ack::total            8                      
system.ruby.L1Cache_Controller.S_IL0.L0_Invalidate_Own |           8      0.00%      0.00% |      126918     12.32%     12.32% |      103828     10.08%     22.40% |      131110     12.73%     35.12% |      133915     13.00%     48.12% |      133260     12.93%     61.05% |      133926     13.00%     74.05% |      134002     13.01%     87.06% |      133319     12.94%    100.00%
system.ruby.L1Cache_Controller.S_IL0.L0_Invalidate_Own::total      1030286                      
system.ruby.L1Cache_Controller.S_IL0.L0_Invalidate_Else |           3      0.24%      0.24% |          80      6.49%      6.73% |         113      9.16%     15.90% |         676     54.83%     70.72% |          52      4.22%     74.94% |          41      3.33%     78.26% |          71      5.76%     84.02% |          99      8.03%     92.05% |          98      7.95%    100.00%
system.ruby.L1Cache_Controller.S_IL0.L0_Invalidate_Else::total         1233                      
system.ruby.L1Cache_Controller.S_IL0.L0_Ack |          11      0.00%      0.00% |      126998     12.31%     12.31% |      103940     10.08%     22.39% |      131786     12.78%     35.17% |      133967     12.99%     48.15% |      133301     12.92%     61.08% |      133997     12.99%     74.07% |      134101     13.00%     87.07% |      133417     12.93%    100.00%
system.ruby.L1Cache_Controller.S_IL0.L0_Ack::total      1031518                      
system.ruby.L1Cache_Controller.E_IL0.L0_DataAck |        1528     64.42%     64.42% |         113      4.76%     69.18% |         108      4.55%     73.74% |          99      4.17%     77.91% |         111      4.68%     82.59% |          99      4.17%     86.76% |         105      4.43%     91.19% |         112      4.72%     95.91% |          97      4.09%    100.00%
system.ruby.L1Cache_Controller.E_IL0.L0_DataAck::total         2372                      
system.ruby.L1Cache_Controller.E_IL0.L0_Invalidate_Own |        8600     15.24%     15.24% |        5821     10.31%     25.55% |        7088     12.56%     38.11% |        5766     10.22%     48.33% |        5933     10.51%     58.84% |        5909     10.47%     69.31% |        5719     10.13%     79.45% |        5720     10.14%     89.58% |        5879     10.42%    100.00%
system.ruby.L1Cache_Controller.E_IL0.L0_Invalidate_Own::total        56435                      
system.ruby.L1Cache_Controller.E_IL0.L0_Invalidate_Else |          26      0.03%      0.03% |       11994     14.76%     14.79% |       62821     77.29%     92.07% |        4717      5.80%     97.88% |         642      0.79%     98.67% |          71      0.09%     98.75% |         837      1.03%     99.78% |          71      0.09%     99.87% |         104      0.13%    100.00%
system.ruby.L1Cache_Controller.E_IL0.L0_Invalidate_Else::total        81283                      
system.ruby.L1Cache_Controller.E_IL0.L0_Ack |        7098      5.24%      5.24% |       17702     13.08%     18.32% |       69801     51.57%     69.90% |       10384      7.67%     77.57% |        6464      4.78%     82.34% |        5881      4.35%     86.69% |        6451      4.77%     91.46% |        5679      4.20%     95.65% |        5886      4.35%    100.00%
system.ruby.L1Cache_Controller.E_IL0.L0_Ack::total       135346                      
system.ruby.L1Cache_Controller.M_IL0.L0_DataAck |       17192     63.36%     63.36% |        1245      4.59%     67.95% |        1241      4.57%     72.52% |        1243      4.58%     77.10% |        1243      4.58%     81.68% |        1243      4.58%     86.26% |        1241      4.57%     90.84% |        1243      4.58%     95.42% |        1243      4.58%    100.00%
system.ruby.L1Cache_Controller.M_IL0.L0_DataAck::total        27134                      
system.ruby.L1Cache_Controller.M_IL0.L0_Invalidate_Own |       16415     62.03%     62.03% |        1259      4.76%     66.79% |        1229      4.64%     71.43% |        1239      4.68%     76.12% |        1242      4.69%     80.81% |        1306      4.94%     85.75% |        1257      4.75%     90.50% |        1212      4.58%     95.08% |        1303      4.92%    100.00%
system.ruby.L1Cache_Controller.M_IL0.L0_Invalidate_Own::total        26462                      
system.ruby.L1Cache_Controller.M_IL0.L0_Invalidate_Else |         837     44.95%     44.95% |         190     10.20%     55.16% |         123      6.61%     61.76% |         100      5.37%     67.13% |         148      7.95%     75.08% |          97      5.21%     80.29% |         123      6.61%     86.90% |         144      7.73%     94.63% |         100      5.37%    100.00%
system.ruby.L1Cache_Controller.M_IL0.L0_Invalidate_Else::total         1862                      
system.ruby.L1Cache_Controller.M_IL0.L0_Ack |          60      5.04%      5.04% |         204     17.14%     22.18% |         111      9.33%     31.51% |          96      8.07%     39.58% |         147     12.35%     51.93% |         160     13.45%     65.38% |         139     11.68%     77.06% |         113      9.50%     86.55% |         160     13.45%    100.00%
system.ruby.L1Cache_Controller.M_IL0.L0_Ack::total         1190                      
system.ruby.L2Cache_Controller.L1_GETS        3525676      0.00%      0.00%
system.ruby.L2Cache_Controller.L1_GETX        2298737      0.00%      0.00%
system.ruby.L2Cache_Controller.L1_UPGRADE           87      0.00%      0.00%
system.ruby.L2Cache_Controller.L1_PUTX        4436747      0.00%      0.00%
system.ruby.L2Cache_Controller.L1_PUTX_old           16      0.00%      0.00%
system.ruby.L2Cache_Controller.L2_Replacement       690927      0.00%      0.00%
system.ruby.L2Cache_Controller.L2_Replacement_clean       436772      0.00%      0.00%
system.ruby.L2Cache_Controller.Mem_Data       1766623      0.00%      0.00%
system.ruby.L2Cache_Controller.Mem_Ack        1127699      0.00%      0.00%
system.ruby.L2Cache_Controller.WB_Data          96932      0.00%      0.00%
system.ruby.L2Cache_Controller.WB_Data_clean        66743      0.00%      0.00%
system.ruby.L2Cache_Controller.Ack             116098      0.00%      0.00%
system.ruby.L2Cache_Controller.Ack_all          19023      0.00%      0.00%
system.ruby.L2Cache_Controller.Unblock         102193      0.00%      0.00%
system.ruby.L2Cache_Controller.Exclusive_Unblock      4604763      0.00%      0.00%
system.ruby.L2Cache_Controller.NP.L1_GETS       342979      0.00%      0.00%
system.ruby.L2Cache_Controller.NP.L1_GETX      1423644      0.00%      0.00%
system.ruby.L2Cache_Controller.NP.L1_PUTX_old            8      0.00%      0.00%
system.ruby.L2Cache_Controller.SS.L1_GETS       756106      0.00%      0.00%
system.ruby.L2Cache_Controller.SS.L1_GETX            1      0.00%      0.00%
system.ruby.L2Cache_Controller.SS.L1_UPGRADE           87      0.00%      0.00%
system.ruby.L2Cache_Controller.SS.L2_Replacement         1249      0.00%      0.00%
system.ruby.L2Cache_Controller.SS.L2_Replacement_clean        16557      0.00%      0.00%
system.ruby.L2Cache_Controller.M.L1_GETS      1995068      0.00%      0.00%
system.ruby.L2Cache_Controller.M.L1_GETX       875029      0.00%      0.00%
system.ruby.L2Cache_Controller.M.L2_Replacement       688040      0.00%      0.00%
system.ruby.L2Cache_Controller.M.L2_Replacement_clean       359154      0.00%      0.00%
system.ruby.L2Cache_Controller.MT.L1_GETS       102193      0.00%      0.00%
system.ruby.L2Cache_Controller.MT.L1_GETX           29      0.00%      0.00%
system.ruby.L2Cache_Controller.MT.L1_PUTX      4436747      0.00%      0.00%
system.ruby.L2Cache_Controller.MT.L2_Replacement         1638      0.00%      0.00%
system.ruby.L2Cache_Controller.MT.L2_Replacement_clean        61061      0.00%      0.00%
system.ruby.L2Cache_Controller.M_I.L1_GETS            7      0.00%      0.00%
system.ruby.L2Cache_Controller.M_I.Mem_Ack      1127699      0.00%      0.00%
system.ruby.L2Cache_Controller.MT_I.L1_PUTX_old            8      0.00%      0.00%
system.ruby.L2Cache_Controller.MT_I.WB_Data         1212      0.00%      0.00%
system.ruby.L2Cache_Controller.MT_I.WB_Data_clean           82      0.00%      0.00%
system.ruby.L2Cache_Controller.MT_I.Ack_all          344      0.00%      0.00%
system.ruby.L2Cache_Controller.MCT_I.WB_Data        13745      0.00%      0.00%
system.ruby.L2Cache_Controller.MCT_I.WB_Data_clean        46443      0.00%      0.00%
system.ruby.L2Cache_Controller.MCT_I.Ack_all          873      0.00%      0.00%
system.ruby.L2Cache_Controller.I_I.Ack         107905      0.00%      0.00%
system.ruby.L2Cache_Controller.I_I.Ack_all        16557      0.00%      0.00%
system.ruby.L2Cache_Controller.S_I.Ack           8193      0.00%      0.00%
system.ruby.L2Cache_Controller.S_I.Ack_all         1249      0.00%      0.00%
system.ruby.L2Cache_Controller.ISS.L1_GETS        32074      0.00%      0.00%
system.ruby.L2Cache_Controller.ISS.Mem_Data       310905      0.00%      0.00%
system.ruby.L2Cache_Controller.IS.L1_GETS        80231      0.00%      0.00%
system.ruby.L2Cache_Controller.IS.Mem_Data        32074      0.00%      0.00%
system.ruby.L2Cache_Controller.IM.L1_GETX           10      0.00%      0.00%
system.ruby.L2Cache_Controller.IM.Mem_Data      1423644      0.00%      0.00%
system.ruby.L2Cache_Controller.SS_MB.Exclusive_Unblock           88      0.00%      0.00%
system.ruby.L2Cache_Controller.MT_MB.L1_GETS        63686      0.00%      0.00%
system.ruby.L2Cache_Controller.MT_MB.L1_GETX           24      0.00%      0.00%
system.ruby.L2Cache_Controller.MT_MB.Exclusive_Unblock      4604675      0.00%      0.00%
system.ruby.L2Cache_Controller.MT_IIB.L1_GETS       152639      0.00%      0.00%
system.ruby.L2Cache_Controller.MT_IIB.WB_Data        81934      0.00%      0.00%
system.ruby.L2Cache_Controller.MT_IIB.WB_Data_clean        19944      0.00%      0.00%
system.ruby.L2Cache_Controller.MT_IIB.Unblock          315      0.00%      0.00%
system.ruby.L2Cache_Controller.MT_IB.WB_Data           41      0.00%      0.00%
system.ruby.L2Cache_Controller.MT_IB.WB_Data_clean          274      0.00%      0.00%
system.ruby.L2Cache_Controller.MT_SB.L1_GETS          693      0.00%      0.00%
system.ruby.L2Cache_Controller.MT_SB.Unblock       101878      0.00%      0.00%

---------- End Simulation Statistics   ----------
