
---------- Begin Simulation Statistics ----------
sim_seconds                                  5.692877                       # Number of seconds simulated
sim_ticks                                5692876551000                       # Number of ticks simulated
final_tick                               5692876551000                       # Number of ticks from beginning of simulation (restored from checkpoints and never reset)
sim_freq                                 1000000000000                       # Frequency of simulated ticks
host_inst_rate                                 137470                       # Simulator instruction rate (inst/s)
host_op_rate                                   384695                       # Simulator op (including micro ops) rate (op/s)
host_tick_rate                              230438242                       # Simulator tick rate (ticks/s)
host_mem_usage                                4143732                       # Number of bytes of host memory used
host_seconds                                 24704.57                       # Real time elapsed on the host
sim_insts                                  3396130014                       # Number of instructions simulated
sim_ops                                    9503714752                       # Number of ops (including micro ops) simulated
system.voltage_domain.voltage                       1                       # Voltage in Volts
system.clk_domain.clock                          1000                       # Clock period in ticks
system.mem_ctrls.bytes_read::ruby.dir_cntrl0    399965504                       # Number of bytes read from this memory
system.mem_ctrls.bytes_read::total          399965504                       # Number of bytes read from this memory
system.mem_ctrls.bytes_written::ruby.dir_cntrl0    279363008                       # Number of bytes written to this memory
system.mem_ctrls.bytes_written::total       279363008                       # Number of bytes written to this memory
system.mem_ctrls.num_reads::ruby.dir_cntrl0      6249461                       # Number of read requests responded to by this memory
system.mem_ctrls.num_reads::total             6249461                       # Number of read requests responded to by this memory
system.mem_ctrls.num_writes::ruby.dir_cntrl0      4365047                       # Number of write requests responded to by this memory
system.mem_ctrls.num_writes::total            4365047                       # Number of write requests responded to by this memory
system.mem_ctrls.bw_read::ruby.dir_cntrl0     70257189                       # Total read bandwidth from this memory (bytes/s)
system.mem_ctrls.bw_read::total              70257189                       # Total read bandwidth from this memory (bytes/s)
system.mem_ctrls.bw_write::ruby.dir_cntrl0     49072381                       # Write bandwidth from this memory (bytes/s)
system.mem_ctrls.bw_write::total             49072381                       # Write bandwidth from this memory (bytes/s)
system.mem_ctrls.bw_total::ruby.dir_cntrl0    119329570                       # Total bandwidth to/from this memory (bytes/s)
system.mem_ctrls.bw_total::total            119329570                       # Total bandwidth to/from this memory (bytes/s)
system.mem_ctrls.memReq                      10614508                       # Total number of memory requests
system.mem_ctrls.memRead                      6249461                       # Number of memory reads
system.mem_ctrls.memWrite                     4365047                       # Number of memory writes
system.mem_ctrls.memRefresh                  71808466                       # Number of memory refreshes
system.mem_ctrls.memWaitCycles               40307545                       # Delay stalled at the head of the bank queue
system.mem_ctrls.memInputQ                      12844                       # Delay in the input queue
system.mem_ctrls.memBankQ                      198282                       # Delay behind the head of the bank queue
system.mem_ctrls.totalStalls                 40518671                       # Total number of stall cycles
system.mem_ctrls.stallsPerReq                3.817291                       # Expected number of stall cycles per request
system.mem_ctrls.memBankBusy                 39976869                       # memory stalls due to busy bank
system.mem_ctrls.memBusBusy                    217935                       # memory stalls due to busy bus
system.mem_ctrls.memReadWriteBusy                6889                       # memory stalls due to read write turnaround
system.mem_ctrls.memDataBusBusy                 48612                       # memory stalls due to read read turnaround
system.mem_ctrls.memArbWait                     57240                       # memory stalls due to arbitration
system.mem_ctrls.memBankCount            |      331249      3.12%      3.12% |      331160      3.12%      6.24% |      330899      3.12%      9.36% |      331201      3.12%     12.48% |      331187      3.12%     15.60% |      331074      3.12%     18.72% |      330657      3.12%     21.83% |      330538      3.11%     24.95% |      331541      3.12%     28.07% |      331618      3.12%     31.19% |      331697      3.12%     34.32% |      331041      3.12%     37.44% |      332625      3.13%     40.57% |      331641      3.12%     43.70% |      331356      3.12%     46.82% |      331853      3.13%     49.94% |      332972      3.14%     53.08% |      332372      3.13%     56.21% |      333148      3.14%     59.35% |      332617      3.13%     62.48% |      332374      3.13%     65.62% |      332470      3.13%     68.75% |      332189      3.13%     71.88% |      331668      3.12%     75.00% |      331704      3.13%     78.13% |      331103      3.12%     81.25% |      331520      3.12%     84.37% |      331647      3.12%     87.49% |      331916      3.13%     90.62% |      332204      3.13%     93.75% |      331509      3.12%     96.87% |      331758      3.13%    100.00% # Number of accesses per bank
system.mem_ctrls.memBankCount::total         10614508                       # Number of accesses per bank
system.cpu_voltage_domain.voltage                   1                       # Voltage in Volts
system.cpu_clk_domain.clock                       500                       # Clock period in ticks
system.cpu0.apic_clk_domain.clock                8000                       # Clock period in ticks
system.cpu0.workload.num_syscalls                 180                       # Number of system calls
system.cpu0.numCycles                     11385753102                       # number of cpu cycles simulated
system.cpu0.numWorkItemsStarted                     0                       # number of work items this cpu started
system.cpu0.numWorkItemsCompleted                   0                       # number of work items this cpu completed
system.cpu0.committedInsts                 3163821086                       # Number of instructions committed
system.cpu0.committedOps                   9039121972                       # Number of ops (including micro ops) committed
system.cpu0.num_int_alu_accesses           8526828702                       # Number of integer alu accesses
system.cpu0.num_fp_alu_accesses             216644550                       # Number of float alu accesses
system.cpu0.num_func_calls                  304262268                       # number of times a function call or return occured
system.cpu0.num_conditional_control_insts    698756434                       # number of instructions that are conditional controls
system.cpu0.num_int_insts                  8526828702                       # number of integer instructions
system.cpu0.num_fp_insts                    216644550                       # number of float instructions
system.cpu0.num_int_register_reads        17964137183                       # number of times the integer registers were read
system.cpu0.num_int_register_writes        8494465309                       # number of times the integer registers were written
system.cpu0.num_fp_register_reads           348151590                       # number of times the floating registers were read
system.cpu0.num_fp_register_writes          170275978                       # number of times the floating registers were written
system.cpu0.num_cc_register_reads          7221836295                       # number of times the CC registers were read
system.cpu0.num_cc_register_writes         2706781535                       # number of times the CC registers were written
system.cpu0.num_mem_refs                   1378320371                       # number of memory refs
system.cpu0.num_load_insts                  837309417                       # Number of load instructions
system.cpu0.num_store_insts                 541010954                       # Number of store instructions
system.cpu0.num_idle_cycles                  0.002000                       # Number of idle cycles
system.cpu0.num_busy_cycles              11385753101.998001                       # Number of busy cycles
system.cpu0.not_idle_fraction                1.000000                       # Percentage of non-idle cycles
system.cpu0.idle_fraction                    0.000000                       # Percentage of idle cycles
system.cpu0.Branches                       1148993944                       # Number of branches fetched
system.cpu0.op_class::No_OpClass            177947948      1.97%      1.97% # Class of executed instruction
system.cpu0.op_class::IntAlu               6552624538     72.49%     74.46% # Class of executed instruction
system.cpu0.op_class::IntMult                     389      0.00%     74.46% # Class of executed instruction
system.cpu0.op_class::IntDiv                759953505      8.41%     82.87% # Class of executed instruction
system.cpu0.op_class::FloatAdd              170275221      1.88%     84.75% # Class of executed instruction
system.cpu0.op_class::FloatCmp                      0      0.00%     84.75% # Class of executed instruction
system.cpu0.op_class::FloatCvt                      0      0.00%     84.75% # Class of executed instruction
system.cpu0.op_class::FloatMult                     0      0.00%     84.75% # Class of executed instruction
system.cpu0.op_class::FloatDiv                      0      0.00%     84.75% # Class of executed instruction
system.cpu0.op_class::FloatSqrt                     0      0.00%     84.75% # Class of executed instruction
system.cpu0.op_class::SimdAdd                       0      0.00%     84.75% # Class of executed instruction
system.cpu0.op_class::SimdAddAcc                    0      0.00%     84.75% # Class of executed instruction
system.cpu0.op_class::SimdAlu                       0      0.00%     84.75% # Class of executed instruction
system.cpu0.op_class::SimdCmp                       0      0.00%     84.75% # Class of executed instruction
system.cpu0.op_class::SimdCvt                       0      0.00%     84.75% # Class of executed instruction
system.cpu0.op_class::SimdMisc                      0      0.00%     84.75% # Class of executed instruction
system.cpu0.op_class::SimdMult                      0      0.00%     84.75% # Class of executed instruction
system.cpu0.op_class::SimdMultAcc                   0      0.00%     84.75% # Class of executed instruction
system.cpu0.op_class::SimdShift                     0      0.00%     84.75% # Class of executed instruction
system.cpu0.op_class::SimdShiftAcc                  0      0.00%     84.75% # Class of executed instruction
system.cpu0.op_class::SimdSqrt                      0      0.00%     84.75% # Class of executed instruction
system.cpu0.op_class::SimdFloatAdd                  0      0.00%     84.75% # Class of executed instruction
system.cpu0.op_class::SimdFloatAlu                  0      0.00%     84.75% # Class of executed instruction
system.cpu0.op_class::SimdFloatCmp                  0      0.00%     84.75% # Class of executed instruction
system.cpu0.op_class::SimdFloatCvt                  0      0.00%     84.75% # Class of executed instruction
system.cpu0.op_class::SimdFloatDiv                  0      0.00%     84.75% # Class of executed instruction
system.cpu0.op_class::SimdFloatMisc                 0      0.00%     84.75% # Class of executed instruction
system.cpu0.op_class::SimdFloatMult                 0      0.00%     84.75% # Class of executed instruction
system.cpu0.op_class::SimdFloatMultAcc              0      0.00%     84.75% # Class of executed instruction
system.cpu0.op_class::SimdFloatSqrt                 0      0.00%     84.75% # Class of executed instruction
system.cpu0.op_class::MemRead               837309417      9.26%     94.01% # Class of executed instruction
system.cpu0.op_class::MemWrite              541010954      5.99%    100.00% # Class of executed instruction
system.cpu0.op_class::IprAccess                     0      0.00%    100.00% # Class of executed instruction
system.cpu0.op_class::InstPrefetch                  0      0.00%    100.00% # Class of executed instruction
system.cpu0.op_class::total                9039121972                       # Class of executed instruction
system.cpu1.apic_clk_domain.clock                8000                       # Clock period in ticks
system.cpu1.numCycles                     11379668120                       # number of cpu cycles simulated
system.cpu1.numWorkItemsStarted                     0                       # number of work items this cpu started
system.cpu1.numWorkItemsCompleted                   0                       # number of work items this cpu completed
system.cpu1.committedInsts                   58077232                       # Number of instructions committed
system.cpu1.committedOps                    116148195                       # Number of ops (including micro ops) committed
system.cpu1.num_int_alu_accesses             87175319                       # Number of integer alu accesses
system.cpu1.num_fp_alu_accesses              56894279                       # Number of float alu accesses
system.cpu1.num_func_calls                     161815                       # number of times a function call or return occured
system.cpu1.num_conditional_control_insts      7134452                       # number of instructions that are conditional controls
system.cpu1.num_int_insts                    87175319                       # number of integer instructions
system.cpu1.num_fp_insts                     56894279                       # number of float instructions
system.cpu1.num_int_register_reads          153196448                       # number of times the integer registers were read
system.cpu1.num_int_register_writes          52032168                       # number of times the integer registers were written
system.cpu1.num_fp_register_reads            86190677                       # number of times the floating registers were read
system.cpu1.num_fp_register_writes           56813392                       # number of times the floating registers were written
system.cpu1.num_cc_register_reads            42887640                       # number of times the CC registers were read
system.cpu1.num_cc_register_writes           42862530                       # number of times the CC registers were written
system.cpu1.num_mem_refs                     28338623                       # number of memory refs
system.cpu1.num_load_insts                   28176742                       # Number of load instructions
system.cpu1.num_store_insts                    161881                       # Number of store instructions
system.cpu1.num_idle_cycles              11113249960.192190                       # Number of idle cycles
system.cpu1.num_busy_cycles              266418159.807810                       # Number of busy cycles
system.cpu1.not_idle_fraction                0.023412                       # Percentage of non-idle cycles
system.cpu1.idle_fraction                    0.976588                       # Percentage of idle cycles
system.cpu1.Branches                          7383422                       # Number of branches fetched
system.cpu1.op_class::No_OpClass                    2      0.00%      0.00% # Class of executed instruction
system.cpu1.op_class::IntAlu                 58594024     50.45%     50.45% # Class of executed instruction
system.cpu1.op_class::IntMult                  242657      0.21%     50.66% # Class of executed instruction
system.cpu1.op_class::IntDiv                       14      0.00%     50.66% # Class of executed instruction
system.cpu1.op_class::FloatAdd               28972875     24.94%     75.60% # Class of executed instruction
system.cpu1.op_class::FloatCmp                      0      0.00%     75.60% # Class of executed instruction
system.cpu1.op_class::FloatCvt                      0      0.00%     75.60% # Class of executed instruction
system.cpu1.op_class::FloatMult                     0      0.00%     75.60% # Class of executed instruction
system.cpu1.op_class::FloatDiv                      0      0.00%     75.60% # Class of executed instruction
system.cpu1.op_class::FloatSqrt                     0      0.00%     75.60% # Class of executed instruction
system.cpu1.op_class::SimdAdd                       0      0.00%     75.60% # Class of executed instruction
system.cpu1.op_class::SimdAddAcc                    0      0.00%     75.60% # Class of executed instruction
system.cpu1.op_class::SimdAlu                       0      0.00%     75.60% # Class of executed instruction
system.cpu1.op_class::SimdCmp                       0      0.00%     75.60% # Class of executed instruction
system.cpu1.op_class::SimdCvt                       0      0.00%     75.60% # Class of executed instruction
system.cpu1.op_class::SimdMisc                      0      0.00%     75.60% # Class of executed instruction
system.cpu1.op_class::SimdMult                      0      0.00%     75.60% # Class of executed instruction
system.cpu1.op_class::SimdMultAcc                   0      0.00%     75.60% # Class of executed instruction
system.cpu1.op_class::SimdShift                     0      0.00%     75.60% # Class of executed instruction
system.cpu1.op_class::SimdShiftAcc                  0      0.00%     75.60% # Class of executed instruction
system.cpu1.op_class::SimdSqrt                      0      0.00%     75.60% # Class of executed instruction
system.cpu1.op_class::SimdFloatAdd                  0      0.00%     75.60% # Class of executed instruction
system.cpu1.op_class::SimdFloatAlu                  0      0.00%     75.60% # Class of executed instruction
system.cpu1.op_class::SimdFloatCmp                  0      0.00%     75.60% # Class of executed instruction
system.cpu1.op_class::SimdFloatCvt                  0      0.00%     75.60% # Class of executed instruction
system.cpu1.op_class::SimdFloatDiv                  0      0.00%     75.60% # Class of executed instruction
system.cpu1.op_class::SimdFloatMisc                 0      0.00%     75.60% # Class of executed instruction
system.cpu1.op_class::SimdFloatMult                 0      0.00%     75.60% # Class of executed instruction
system.cpu1.op_class::SimdFloatMultAcc              0      0.00%     75.60% # Class of executed instruction
system.cpu1.op_class::SimdFloatSqrt                 0      0.00%     75.60% # Class of executed instruction
system.cpu1.op_class::MemRead                28176742     24.26%     99.86% # Class of executed instruction
system.cpu1.op_class::MemWrite                 161881      0.14%    100.00% # Class of executed instruction
system.cpu1.op_class::IprAccess                     0      0.00%    100.00% # Class of executed instruction
system.cpu1.op_class::InstPrefetch                  0      0.00%    100.00% # Class of executed instruction
system.cpu1.op_class::total                 116148195                       # Class of executed instruction
system.cpu2.apic_clk_domain.clock                8000                       # Clock period in ticks
system.cpu2.numCycles                     11385498388                       # number of cpu cycles simulated
system.cpu2.numWorkItemsStarted                     0                       # number of work items this cpu started
system.cpu2.numWorkItemsCompleted                   0                       # number of work items this cpu completed
system.cpu2.committedInsts                   58077232                       # Number of instructions committed
system.cpu2.committedOps                    116148195                       # Number of ops (including micro ops) committed
system.cpu2.num_int_alu_accesses             87175319                       # Number of integer alu accesses
system.cpu2.num_fp_alu_accesses              56894279                       # Number of float alu accesses
system.cpu2.num_func_calls                     161815                       # number of times a function call or return occured
system.cpu2.num_conditional_control_insts      7134452                       # number of instructions that are conditional controls
system.cpu2.num_int_insts                    87175319                       # number of integer instructions
system.cpu2.num_fp_insts                     56894279                       # number of float instructions
system.cpu2.num_int_register_reads          153196448                       # number of times the integer registers were read
system.cpu2.num_int_register_writes          52032168                       # number of times the integer registers were written
system.cpu2.num_fp_register_reads            86190677                       # number of times the floating registers were read
system.cpu2.num_fp_register_writes           56813392                       # number of times the floating registers were written
system.cpu2.num_cc_register_reads            42887640                       # number of times the CC registers were read
system.cpu2.num_cc_register_writes           42862530                       # number of times the CC registers were written
system.cpu2.num_mem_refs                     28338623                       # number of memory refs
system.cpu2.num_load_insts                   28176742                       # Number of load instructions
system.cpu2.num_store_insts                    161881                       # Number of store instructions
system.cpu2.num_idle_cycles              11113114113.724335                       # Number of idle cycles
system.cpu2.num_busy_cycles              272384274.275666                       # Number of busy cycles
system.cpu2.not_idle_fraction                0.023924                       # Percentage of non-idle cycles
system.cpu2.idle_fraction                    0.976076                       # Percentage of idle cycles
system.cpu2.Branches                          7383422                       # Number of branches fetched
system.cpu2.op_class::No_OpClass                    2      0.00%      0.00% # Class of executed instruction
system.cpu2.op_class::IntAlu                 58594024     50.45%     50.45% # Class of executed instruction
system.cpu2.op_class::IntMult                  242657      0.21%     50.66% # Class of executed instruction
system.cpu2.op_class::IntDiv                       14      0.00%     50.66% # Class of executed instruction
system.cpu2.op_class::FloatAdd               28972875     24.94%     75.60% # Class of executed instruction
system.cpu2.op_class::FloatCmp                      0      0.00%     75.60% # Class of executed instruction
system.cpu2.op_class::FloatCvt                      0      0.00%     75.60% # Class of executed instruction
system.cpu2.op_class::FloatMult                     0      0.00%     75.60% # Class of executed instruction
system.cpu2.op_class::FloatDiv                      0      0.00%     75.60% # Class of executed instruction
system.cpu2.op_class::FloatSqrt                     0      0.00%     75.60% # Class of executed instruction
system.cpu2.op_class::SimdAdd                       0      0.00%     75.60% # Class of executed instruction
system.cpu2.op_class::SimdAddAcc                    0      0.00%     75.60% # Class of executed instruction
system.cpu2.op_class::SimdAlu                       0      0.00%     75.60% # Class of executed instruction
system.cpu2.op_class::SimdCmp                       0      0.00%     75.60% # Class of executed instruction
system.cpu2.op_class::SimdCvt                       0      0.00%     75.60% # Class of executed instruction
system.cpu2.op_class::SimdMisc                      0      0.00%     75.60% # Class of executed instruction
system.cpu2.op_class::SimdMult                      0      0.00%     75.60% # Class of executed instruction
system.cpu2.op_class::SimdMultAcc                   0      0.00%     75.60% # Class of executed instruction
system.cpu2.op_class::SimdShift                     0      0.00%     75.60% # Class of executed instruction
system.cpu2.op_class::SimdShiftAcc                  0      0.00%     75.60% # Class of executed instruction
system.cpu2.op_class::SimdSqrt                      0      0.00%     75.60% # Class of executed instruction
system.cpu2.op_class::SimdFloatAdd                  0      0.00%     75.60% # Class of executed instruction
system.cpu2.op_class::SimdFloatAlu                  0      0.00%     75.60% # Class of executed instruction
system.cpu2.op_class::SimdFloatCmp                  0      0.00%     75.60% # Class of executed instruction
system.cpu2.op_class::SimdFloatCvt                  0      0.00%     75.60% # Class of executed instruction
system.cpu2.op_class::SimdFloatDiv                  0      0.00%     75.60% # Class of executed instruction
system.cpu2.op_class::SimdFloatMisc                 0      0.00%     75.60% # Class of executed instruction
system.cpu2.op_class::SimdFloatMult                 0      0.00%     75.60% # Class of executed instruction
system.cpu2.op_class::SimdFloatMultAcc              0      0.00%     75.60% # Class of executed instruction
system.cpu2.op_class::SimdFloatSqrt                 0      0.00%     75.60% # Class of executed instruction
system.cpu2.op_class::MemRead                28176742     24.26%     99.86% # Class of executed instruction
system.cpu2.op_class::MemWrite                 161881      0.14%    100.00% # Class of executed instruction
system.cpu2.op_class::IprAccess                     0      0.00%    100.00% # Class of executed instruction
system.cpu2.op_class::InstPrefetch                  0      0.00%    100.00% # Class of executed instruction
system.cpu2.op_class::total                 116148195                       # Class of executed instruction
system.cpu3.apic_clk_domain.clock                8000                       # Clock period in ticks
system.cpu3.numCycles                     11379668120                       # number of cpu cycles simulated
system.cpu3.numWorkItemsStarted                     0                       # number of work items this cpu started
system.cpu3.numWorkItemsCompleted                   0                       # number of work items this cpu completed
system.cpu3.committedInsts                   58077232                       # Number of instructions committed
system.cpu3.committedOps                    116148195                       # Number of ops (including micro ops) committed
system.cpu3.num_int_alu_accesses             87175319                       # Number of integer alu accesses
system.cpu3.num_fp_alu_accesses              56894279                       # Number of float alu accesses
system.cpu3.num_func_calls                     161815                       # number of times a function call or return occured
system.cpu3.num_conditional_control_insts      7134452                       # number of instructions that are conditional controls
system.cpu3.num_int_insts                    87175319                       # number of integer instructions
system.cpu3.num_fp_insts                     56894279                       # number of float instructions
system.cpu3.num_int_register_reads          153196448                       # number of times the integer registers were read
system.cpu3.num_int_register_writes          52032168                       # number of times the integer registers were written
system.cpu3.num_fp_register_reads            86190677                       # number of times the floating registers were read
system.cpu3.num_fp_register_writes           56813392                       # number of times the floating registers were written
system.cpu3.num_cc_register_reads            42887640                       # number of times the CC registers were read
system.cpu3.num_cc_register_writes           42862530                       # number of times the CC registers were written
system.cpu3.num_mem_refs                     28338623                       # number of memory refs
system.cpu3.num_load_insts                   28176742                       # Number of load instructions
system.cpu3.num_store_insts                    161881                       # Number of store instructions
system.cpu3.num_idle_cycles              11113250915.681267                       # Number of idle cycles
system.cpu3.num_busy_cycles              266417204.318733                       # Number of busy cycles
system.cpu3.not_idle_fraction                0.023412                       # Percentage of non-idle cycles
system.cpu3.idle_fraction                    0.976588                       # Percentage of idle cycles
system.cpu3.Branches                          7383422                       # Number of branches fetched
system.cpu3.op_class::No_OpClass                    2      0.00%      0.00% # Class of executed instruction
system.cpu3.op_class::IntAlu                 58594024     50.45%     50.45% # Class of executed instruction
system.cpu3.op_class::IntMult                  242657      0.21%     50.66% # Class of executed instruction
system.cpu3.op_class::IntDiv                       14      0.00%     50.66% # Class of executed instruction
system.cpu3.op_class::FloatAdd               28972875     24.94%     75.60% # Class of executed instruction
system.cpu3.op_class::FloatCmp                      0      0.00%     75.60% # Class of executed instruction
system.cpu3.op_class::FloatCvt                      0      0.00%     75.60% # Class of executed instruction
system.cpu3.op_class::FloatMult                     0      0.00%     75.60% # Class of executed instruction
system.cpu3.op_class::FloatDiv                      0      0.00%     75.60% # Class of executed instruction
system.cpu3.op_class::FloatSqrt                     0      0.00%     75.60% # Class of executed instruction
system.cpu3.op_class::SimdAdd                       0      0.00%     75.60% # Class of executed instruction
system.cpu3.op_class::SimdAddAcc                    0      0.00%     75.60% # Class of executed instruction
system.cpu3.op_class::SimdAlu                       0      0.00%     75.60% # Class of executed instruction
system.cpu3.op_class::SimdCmp                       0      0.00%     75.60% # Class of executed instruction
system.cpu3.op_class::SimdCvt                       0      0.00%     75.60% # Class of executed instruction
system.cpu3.op_class::SimdMisc                      0      0.00%     75.60% # Class of executed instruction
system.cpu3.op_class::SimdMult                      0      0.00%     75.60% # Class of executed instruction
system.cpu3.op_class::SimdMultAcc                   0      0.00%     75.60% # Class of executed instruction
system.cpu3.op_class::SimdShift                     0      0.00%     75.60% # Class of executed instruction
system.cpu3.op_class::SimdShiftAcc                  0      0.00%     75.60% # Class of executed instruction
system.cpu3.op_class::SimdSqrt                      0      0.00%     75.60% # Class of executed instruction
system.cpu3.op_class::SimdFloatAdd                  0      0.00%     75.60% # Class of executed instruction
system.cpu3.op_class::SimdFloatAlu                  0      0.00%     75.60% # Class of executed instruction
system.cpu3.op_class::SimdFloatCmp                  0      0.00%     75.60% # Class of executed instruction
system.cpu3.op_class::SimdFloatCvt                  0      0.00%     75.60% # Class of executed instruction
system.cpu3.op_class::SimdFloatDiv                  0      0.00%     75.60% # Class of executed instruction
system.cpu3.op_class::SimdFloatMisc                 0      0.00%     75.60% # Class of executed instruction
system.cpu3.op_class::SimdFloatMult                 0      0.00%     75.60% # Class of executed instruction
system.cpu3.op_class::SimdFloatMultAcc              0      0.00%     75.60% # Class of executed instruction
system.cpu3.op_class::SimdFloatSqrt                 0      0.00%     75.60% # Class of executed instruction
system.cpu3.op_class::MemRead                28176742     24.26%     99.86% # Class of executed instruction
system.cpu3.op_class::MemWrite                 161881      0.14%    100.00% # Class of executed instruction
system.cpu3.op_class::IprAccess                     0      0.00%    100.00% # Class of executed instruction
system.cpu3.op_class::InstPrefetch                  0      0.00%    100.00% # Class of executed instruction
system.cpu3.op_class::total                 116148195                       # Class of executed instruction
system.cpu4.apic_clk_domain.clock                8000                       # Clock period in ticks
system.cpu4.numCycles                     11379668120                       # number of cpu cycles simulated
system.cpu4.numWorkItemsStarted                     0                       # number of work items this cpu started
system.cpu4.numWorkItemsCompleted                   0                       # number of work items this cpu completed
system.cpu4.committedInsts                   58077232                       # Number of instructions committed
system.cpu4.committedOps                    116148195                       # Number of ops (including micro ops) committed
system.cpu4.num_int_alu_accesses             87175319                       # Number of integer alu accesses
system.cpu4.num_fp_alu_accesses              56894279                       # Number of float alu accesses
system.cpu4.num_func_calls                     161815                       # number of times a function call or return occured
system.cpu4.num_conditional_control_insts      7134452                       # number of instructions that are conditional controls
system.cpu4.num_int_insts                    87175319                       # number of integer instructions
system.cpu4.num_fp_insts                     56894279                       # number of float instructions
system.cpu4.num_int_register_reads          153196448                       # number of times the integer registers were read
system.cpu4.num_int_register_writes          52032168                       # number of times the integer registers were written
system.cpu4.num_fp_register_reads            86190677                       # number of times the floating registers were read
system.cpu4.num_fp_register_writes           56813392                       # number of times the floating registers were written
system.cpu4.num_cc_register_reads            42887640                       # number of times the CC registers were read
system.cpu4.num_cc_register_writes           42862530                       # number of times the CC registers were written
system.cpu4.num_mem_refs                     28338623                       # number of memory refs
system.cpu4.num_load_insts                   28176742                       # Number of load instructions
system.cpu4.num_store_insts                    161881                       # Number of store instructions
system.cpu4.num_idle_cycles              11113251323.463217                       # Number of idle cycles
system.cpu4.num_busy_cycles              266416796.536784                       # Number of busy cycles
system.cpu4.not_idle_fraction                0.023412                       # Percentage of non-idle cycles
system.cpu4.idle_fraction                    0.976588                       # Percentage of idle cycles
system.cpu4.Branches                          7383422                       # Number of branches fetched
system.cpu4.op_class::No_OpClass                    2      0.00%      0.00% # Class of executed instruction
system.cpu4.op_class::IntAlu                 58594024     50.45%     50.45% # Class of executed instruction
system.cpu4.op_class::IntMult                  242657      0.21%     50.66% # Class of executed instruction
system.cpu4.op_class::IntDiv                       14      0.00%     50.66% # Class of executed instruction
system.cpu4.op_class::FloatAdd               28972875     24.94%     75.60% # Class of executed instruction
system.cpu4.op_class::FloatCmp                      0      0.00%     75.60% # Class of executed instruction
system.cpu4.op_class::FloatCvt                      0      0.00%     75.60% # Class of executed instruction
system.cpu4.op_class::FloatMult                     0      0.00%     75.60% # Class of executed instruction
system.cpu4.op_class::FloatDiv                      0      0.00%     75.60% # Class of executed instruction
system.cpu4.op_class::FloatSqrt                     0      0.00%     75.60% # Class of executed instruction
system.cpu4.op_class::SimdAdd                       0      0.00%     75.60% # Class of executed instruction
system.cpu4.op_class::SimdAddAcc                    0      0.00%     75.60% # Class of executed instruction
system.cpu4.op_class::SimdAlu                       0      0.00%     75.60% # Class of executed instruction
system.cpu4.op_class::SimdCmp                       0      0.00%     75.60% # Class of executed instruction
system.cpu4.op_class::SimdCvt                       0      0.00%     75.60% # Class of executed instruction
system.cpu4.op_class::SimdMisc                      0      0.00%     75.60% # Class of executed instruction
system.cpu4.op_class::SimdMult                      0      0.00%     75.60% # Class of executed instruction
system.cpu4.op_class::SimdMultAcc                   0      0.00%     75.60% # Class of executed instruction
system.cpu4.op_class::SimdShift                     0      0.00%     75.60% # Class of executed instruction
system.cpu4.op_class::SimdShiftAcc                  0      0.00%     75.60% # Class of executed instruction
system.cpu4.op_class::SimdSqrt                      0      0.00%     75.60% # Class of executed instruction
system.cpu4.op_class::SimdFloatAdd                  0      0.00%     75.60% # Class of executed instruction
system.cpu4.op_class::SimdFloatAlu                  0      0.00%     75.60% # Class of executed instruction
system.cpu4.op_class::SimdFloatCmp                  0      0.00%     75.60% # Class of executed instruction
system.cpu4.op_class::SimdFloatCvt                  0      0.00%     75.60% # Class of executed instruction
system.cpu4.op_class::SimdFloatDiv                  0      0.00%     75.60% # Class of executed instruction
system.cpu4.op_class::SimdFloatMisc                 0      0.00%     75.60% # Class of executed instruction
system.cpu4.op_class::SimdFloatMult                 0      0.00%     75.60% # Class of executed instruction
system.cpu4.op_class::SimdFloatMultAcc              0      0.00%     75.60% # Class of executed instruction
system.cpu4.op_class::SimdFloatSqrt                 0      0.00%     75.60% # Class of executed instruction
system.cpu4.op_class::MemRead                28176742     24.26%     99.86% # Class of executed instruction
system.cpu4.op_class::MemWrite                 161881      0.14%    100.00% # Class of executed instruction
system.cpu4.op_class::IprAccess                     0      0.00%    100.00% # Class of executed instruction
system.cpu4.op_class::InstPrefetch                  0      0.00%    100.00% # Class of executed instruction
system.cpu4.op_class::total                 116148195                       # Class of executed instruction
system.ruby.clk_domain.clock                      500                       # Clock period in ticks
system.ruby.delayHist::bucket_size                 16                       # delay histogram for all message
system.ruby.delayHist::max_bucket                 159                       # delay histogram for all message
system.ruby.delayHist::samples               78794544                       # delay histogram for all message
system.ruby.delayHist::mean                  0.545303                       # delay histogram for all message
system.ruby.delayHist::stdev                 1.967785                       # delay histogram for all message
system.ruby.delayHist                    |    78784205     99.99%     99.99% |       10132      0.01%    100.00% |         140      0.00%    100.00% |          61      0.00%    100.00% |           5      0.00%    100.00% |           0      0.00%    100.00% |           0      0.00%    100.00% |           0      0.00%    100.00% |           0      0.00%    100.00% |           1      0.00%    100.00% # delay histogram for all message
system.ruby.delayHist::total                 78794544                       # delay histogram for all message
system.ruby.outstanding_req_hist::bucket_size            1                      
system.ruby.outstanding_req_hist::max_bucket            9                      
system.ruby.outstanding_req_hist::samples   5914178318                      
system.ruby.outstanding_req_hist::mean       1.000199                      
system.ruby.outstanding_req_hist::gmean      1.000138                      
system.ruby.outstanding_req_hist::stdev      0.014122                      
system.ruby.outstanding_req_hist         |           0      0.00%      0.00% |  5912998606     99.98%     99.98% |     1179712      0.02%    100.00% |           0      0.00%    100.00% |           0      0.00%    100.00% |           0      0.00%    100.00% |           0      0.00%    100.00% |           0      0.00%    100.00% |           0      0.00%    100.00% |           0      0.00%    100.00%
system.ruby.outstanding_req_hist::total    5914178318                      
system.ruby.latency_hist::bucket_size              32                      
system.ruby.latency_hist::max_bucket              319                      
system.ruby.latency_hist::samples          5914178318                      
system.ruby.latency_hist::mean               1.106733                      
system.ruby.latency_hist::gmean              1.007393                      
system.ruby.latency_hist::stdev              2.789276                      
system.ruby.latency_hist                 |  5907340962     99.88%     99.88% |     1190289      0.02%     99.90% |     5580103      0.09%    100.00% |       66871      0.00%    100.00% |          72      0.00%    100.00% |           8      0.00%    100.00% |          12      0.00%    100.00% |           1      0.00%    100.00% |           0      0.00%    100.00% |           0      0.00%    100.00%
system.ruby.latency_hist::total            5914178318                      
system.ruby.hit_latency_hist::bucket_size           32                      
system.ruby.hit_latency_hist::max_bucket          319                      
system.ruby.hit_latency_hist::samples      5914178318                      
system.ruby.hit_latency_hist::mean           1.106733                      
system.ruby.hit_latency_hist::gmean          1.007393                      
system.ruby.hit_latency_hist::stdev          2.789276                      
system.ruby.hit_latency_hist             |  5907340962     99.88%     99.88% |     1190289      0.02%     99.90% |     5580103      0.09%    100.00% |       66871      0.00%    100.00% |          72      0.00%    100.00% |           8      0.00%    100.00% |          12      0.00%    100.00% |           1      0.00%    100.00% |           0      0.00%    100.00% |           0      0.00%    100.00%
system.ruby.hit_latency_hist::total        5914178318                      
system.ruby.l0_cntrl0.Dcache.demand_hits   1373969479                       # Number of cache demand hits
system.ruby.l0_cntrl0.Dcache.demand_misses      4350956                       # Number of cache demand misses
system.ruby.l0_cntrl0.Dcache.demand_accesses   1378320435                       # Number of cache demand accesses
system.ruby.l0_cntrl0.Icache.demand_hits   4123289098                       # Number of cache demand hits
system.ruby.l0_cntrl0.Icache.demand_misses        11885                       # Number of cache demand misses
system.ruby.l0_cntrl0.Icache.demand_accesses   4123300983                       # Number of cache demand accesses
system.ruby.l0_cntrl0.Zcache.demand_hits            0                       # Number of cache demand hits
system.ruby.l0_cntrl0.Zcache.demand_misses            0                       # Number of cache demand misses
system.ruby.l0_cntrl0.Zcache.demand_accesses            0                       # Number of cache demand accesses
system.ruby.l0_cntrl1.Dcache.demand_hits     26832068                       # Number of cache demand hits
system.ruby.l0_cntrl1.Dcache.demand_misses      1801467                       # Number of cache demand misses
system.ruby.l0_cntrl1.Dcache.demand_accesses     28633535                       # Number of cache demand accesses
system.ruby.l0_cntrl1.Icache.demand_hits     74503562                       # Number of cache demand hits
system.ruby.l0_cntrl1.Icache.demand_misses         2128                       # Number of cache demand misses
system.ruby.l0_cntrl1.Icache.demand_accesses     74505690                       # Number of cache demand accesses
system.ruby.l0_cntrl1.Zcache.demand_hits            0                       # Number of cache demand hits
system.ruby.l0_cntrl1.Zcache.demand_misses            0                       # Number of cache demand misses
system.ruby.l0_cntrl1.Zcache.demand_accesses            0                       # Number of cache demand accesses
system.ruby.l0_cntrl2.Dcache.demand_hits     26832824                       # Number of cache demand hits
system.ruby.l0_cntrl2.Dcache.demand_misses      1800711                       # Number of cache demand misses
system.ruby.l0_cntrl2.Dcache.demand_accesses     28633535                       # Number of cache demand accesses
system.ruby.l0_cntrl2.Icache.demand_hits     74503710                       # Number of cache demand hits
system.ruby.l0_cntrl2.Icache.demand_misses         1980                       # Number of cache demand misses
system.ruby.l0_cntrl2.Icache.demand_accesses     74505690                       # Number of cache demand accesses
system.ruby.l0_cntrl2.Zcache.demand_hits            0                       # Number of cache demand hits
system.ruby.l0_cntrl2.Zcache.demand_misses            0                       # Number of cache demand misses
system.ruby.l0_cntrl2.Zcache.demand_accesses            0                       # Number of cache demand accesses
system.ruby.l0_cntrl3.Dcache.demand_hits     26831886                       # Number of cache demand hits
system.ruby.l0_cntrl3.Dcache.demand_misses      1801649                       # Number of cache demand misses
system.ruby.l0_cntrl3.Dcache.demand_accesses     28633535                       # Number of cache demand accesses
system.ruby.l0_cntrl3.Icache.demand_hits     74503634                       # Number of cache demand hits
system.ruby.l0_cntrl3.Icache.demand_misses         2056                       # Number of cache demand misses
system.ruby.l0_cntrl3.Icache.demand_accesses     74505690                       # Number of cache demand accesses
system.ruby.l0_cntrl3.Zcache.demand_hits            0                       # Number of cache demand hits
system.ruby.l0_cntrl3.Zcache.demand_misses            0                       # Number of cache demand misses
system.ruby.l0_cntrl3.Zcache.demand_accesses            0                       # Number of cache demand accesses
system.ruby.l0_cntrl4.Dcache.demand_hits     26825307                       # Number of cache demand hits
system.ruby.l0_cntrl4.Dcache.demand_misses      1808228                       # Number of cache demand misses
system.ruby.l0_cntrl4.Dcache.demand_accesses     28633535                       # Number of cache demand accesses
system.ruby.l0_cntrl4.Icache.demand_hits     74503661                       # Number of cache demand hits
system.ruby.l0_cntrl4.Icache.demand_misses         2029                       # Number of cache demand misses
system.ruby.l0_cntrl4.Icache.demand_accesses     74505690                       # Number of cache demand accesses
system.ruby.l0_cntrl4.Zcache.demand_hits            0                       # Number of cache demand hits
system.ruby.l0_cntrl4.Zcache.demand_misses            0                       # Number of cache demand misses
system.ruby.l0_cntrl4.Zcache.demand_accesses            0                       # Number of cache demand accesses
system.ruby.l1_cntrl0.cache.demand_hits           195                       # Number of cache demand hits
system.ruby.l1_cntrl0.cache.demand_misses      4362646                       # Number of cache demand misses
system.ruby.l1_cntrl0.cache.demand_accesses      4362841                       # Number of cache demand accesses
system.ruby.l1_cntrl1.cache.demand_hits        152735                       # Number of cache demand hits
system.ruby.l1_cntrl1.cache.demand_misses      1650860                       # Number of cache demand misses
system.ruby.l1_cntrl1.cache.demand_accesses      1803595                       # Number of cache demand accesses
system.ruby.l1_cntrl2.cache.demand_hits        156750                       # Number of cache demand hits
system.ruby.l1_cntrl2.cache.demand_misses      1645941                       # Number of cache demand misses
system.ruby.l1_cntrl2.cache.demand_accesses      1802691                       # Number of cache demand accesses
system.ruby.l1_cntrl3.cache.demand_hits        161698                       # Number of cache demand hits
system.ruby.l1_cntrl3.cache.demand_misses      1642007                       # Number of cache demand misses
system.ruby.l1_cntrl3.cache.demand_accesses      1803705                       # Number of cache demand accesses
system.ruby.l1_cntrl4.cache.demand_hits        157268                       # Number of cache demand hits
system.ruby.l1_cntrl4.cache.demand_misses      1652989                       # Number of cache demand misses
system.ruby.l1_cntrl4.cache.demand_accesses      1810257                       # Number of cache demand accesses
system.ruby.l2_cntrl0.L2cache.demand_hits      4102707                       # Number of cache demand hits
system.ruby.l2_cntrl0.L2cache.demand_misses      6851736                       # Number of cache demand misses
system.ruby.l2_cntrl0.L2cache.demand_accesses     10954443                       # Number of cache demand accesses
system.ruby.l2_cntrl0.fully_busy_cycles          1395                       # cycles for which number of transistions == max transitions
system.ruby.memctrl_clk_domain.clock             1500                       # Clock period in ticks
system.ruby.network.routers00.percent_links_utilized            0                      
system.ruby.network.routers01.percent_links_utilized            0                      
system.ruby.network.routers02.percent_links_utilized            0                      
system.ruby.network.routers03.percent_links_utilized            0                      
system.ruby.network.routers04.percent_links_utilized            0                      
system.ruby.network.routers05.percent_links_utilized     0.201128                      
system.ruby.network.routers05.msg_count.Control::0      4362646                      
system.ruby.network.routers05.msg_count.Request_Control::2         6328                      
system.ruby.network.routers05.msg_count.Response_Data::1      4362656                      
system.ruby.network.routers05.msg_count.Response_Control::1      4355661                      
system.ruby.network.routers05.msg_count.Response_Control::2      4362643                      
system.ruby.network.routers05.msg_count.Writeback_Data::0      4354708                      
system.ruby.network.routers05.msg_count.Writeback_Data::1         6164                      
system.ruby.network.routers05.msg_count.Writeback_Control::0          753                      
system.ruby.network.routers05.msg_bytes.Control::0     34901168                      
system.ruby.network.routers05.msg_bytes.Request_Control::2        50624                      
system.ruby.network.routers05.msg_bytes.Response_Data::1    314111232                      
system.ruby.network.routers05.msg_bytes.Response_Control::1     34845288                      
system.ruby.network.routers05.msg_bytes.Response_Control::2     34901144                      
system.ruby.network.routers05.msg_bytes.Writeback_Data::0    313538976                      
system.ruby.network.routers05.msg_bytes.Writeback_Data::1       443808                      
system.ruby.network.routers05.msg_bytes.Writeback_Control::0         6024                      
system.ruby.network.routers06.percent_links_utilized     0.049253                      
system.ruby.network.routers06.msg_count.Control::0      1650860                      
system.ruby.network.routers06.msg_count.Request_Control::2       414013                      
system.ruby.network.routers06.msg_count.Response_Data::1      1651543                      
system.ruby.network.routers06.msg_count.Response_Control::1      1481569                      
system.ruby.network.routers06.msg_count.Response_Control::2      1357716                      
system.ruby.network.routers06.msg_count.Writeback_Data::0        19366                      
system.ruby.network.routers06.msg_count.Writeback_Data::1       144059                      
system.ruby.network.routers06.msg_count.Writeback_Control::0      1192588                      
system.ruby.network.routers06.msg_bytes.Control::0     13206880                      
system.ruby.network.routers06.msg_bytes.Request_Control::2      3312104                      
system.ruby.network.routers06.msg_bytes.Response_Data::1    118911096                      
system.ruby.network.routers06.msg_bytes.Response_Control::1     11852552                      
system.ruby.network.routers06.msg_bytes.Response_Control::2     10861728                      
system.ruby.network.routers06.msg_bytes.Writeback_Data::0      1394352                      
system.ruby.network.routers06.msg_bytes.Writeback_Data::1     10372248                      
system.ruby.network.routers06.msg_bytes.Writeback_Control::0      9540704                      
system.ruby.network.routers07.percent_links_utilized     0.050264                      
system.ruby.network.routers07.msg_count.Control::0      1645941                      
system.ruby.network.routers07.msg_count.Request_Control::2       297981                      
system.ruby.network.routers07.msg_count.Response_Data::1      1646365                      
system.ruby.network.routers07.msg_count.Response_Control::1      1429461                      
system.ruby.network.routers07.msg_count.Response_Control::2      1517677                      
system.ruby.network.routers07.msg_count.Writeback_Data::0        20146                      
system.ruby.network.routers07.msg_count.Writeback_Data::1       189033                      
system.ruby.network.routers07.msg_count.Writeback_Control::0      1300579                      
system.ruby.network.routers07.msg_bytes.Control::0     13167528                      
system.ruby.network.routers07.msg_bytes.Request_Control::2      2383848                      
system.ruby.network.routers07.msg_bytes.Response_Data::1    118538280                      
system.ruby.network.routers07.msg_bytes.Response_Control::1     11435688                      
system.ruby.network.routers07.msg_bytes.Response_Control::2     12141416                      
system.ruby.network.routers07.msg_bytes.Writeback_Data::0      1450512                      
system.ruby.network.routers07.msg_bytes.Writeback_Data::1     13610376                      
system.ruby.network.routers07.msg_bytes.Writeback_Control::0     10404632                      
system.ruby.network.routers08.percent_links_utilized     0.046892                      
system.ruby.network.routers08.msg_count.Control::0      1642007                      
system.ruby.network.routers08.msg_count.Request_Control::2       527837                      
system.ruby.network.routers08.msg_count.Response_Data::1      1644050                      
system.ruby.network.routers08.msg_count.Response_Control::1      1571225                      
system.ruby.network.routers08.msg_count.Response_Control::2      1170673                      
system.ruby.network.routers08.msg_count.Writeback_Data::0        18231                      
system.ruby.network.routers08.msg_count.Writeback_Data::1        45741                      
system.ruby.network.routers08.msg_count.Writeback_Control::0      1071920                      
system.ruby.network.routers08.msg_bytes.Control::0     13136056                      
system.ruby.network.routers08.msg_bytes.Request_Control::2      4222696                      
system.ruby.network.routers08.msg_bytes.Response_Data::1    118371600                      
system.ruby.network.routers08.msg_bytes.Response_Control::1     12569800                      
system.ruby.network.routers08.msg_bytes.Response_Control::2      9365384                      
system.ruby.network.routers08.msg_bytes.Writeback_Data::0      1312632                      
system.ruby.network.routers08.msg_bytes.Writeback_Data::1      3293352                      
system.ruby.network.routers08.msg_bytes.Writeback_Control::0      8575360                      
system.ruby.network.routers09.percent_links_utilized     0.048820                      
system.ruby.network.routers09.msg_count.Control::0      1652989                      
system.ruby.network.routers09.msg_count.Request_Control::2       572110                      
system.ruby.network.routers09.msg_count.Response_Data::1      1720142                      
system.ruby.network.routers09.msg_count.Response_Control::1      1579387                      
system.ruby.network.routers09.msg_count.Response_Control::2      1187394                      
system.ruby.network.routers09.msg_count.Writeback_Data::0        22090                      
system.ruby.network.routers09.msg_count.Writeback_Data::1        54345                      
system.ruby.network.routers09.msg_count.Writeback_Control::0      1073107                      
system.ruby.network.routers09.msg_bytes.Control::0     13223912                      
system.ruby.network.routers09.msg_bytes.Request_Control::2      4576880                      
system.ruby.network.routers09.msg_bytes.Response_Data::1    123850224                      
system.ruby.network.routers09.msg_bytes.Response_Control::1     12635096                      
system.ruby.network.routers09.msg_bytes.Response_Control::2      9499152                      
system.ruby.network.routers09.msg_bytes.Writeback_Data::0      1590480                      
system.ruby.network.routers09.msg_bytes.Writeback_Data::1      3912840                      
system.ruby.network.routers09.msg_bytes.Writeback_Control::0      8584856                      
system.ruby.network.routers10.percent_links_utilized     0.622863                      
system.ruby.network.routers10.msg_count.Control::0     17203904                      
system.ruby.network.routers10.msg_count.Request_Control::2       963062                      
system.ruby.network.routers10.msg_count.Response_Data::1     21001812                      
system.ruby.network.routers10.msg_count.Response_Control::1     18387266                      
system.ruby.network.routers10.msg_count.Response_Control::2      9596103                      
system.ruby.network.routers10.msg_count.Writeback_Data::0      4434541                      
system.ruby.network.routers10.msg_count.Writeback_Data::1       439342                      
system.ruby.network.routers10.msg_count.Writeback_Control::0      4638947                      
system.ruby.network.routers10.msg_bytes.Control::0    137631232                      
system.ruby.network.routers10.msg_bytes.Request_Control::2      7704496                      
system.ruby.network.routers10.msg_bytes.Response_Data::1   1512130464                      
system.ruby.network.routers10.msg_bytes.Response_Control::1    147098128                      
system.ruby.network.routers10.msg_bytes.Response_Control::2     76768824                      
system.ruby.network.routers10.msg_bytes.Writeback_Data::0    319286952                      
system.ruby.network.routers10.msg_bytes.Writeback_Data::1     31632624                      
system.ruby.network.routers10.msg_bytes.Writeback_Control::0     37111576                      
system.ruby.network.routers11.percent_links_utilized     0.240981                      
system.ruby.network.routers11.msg_count.Control::0      6249461                      
system.ruby.network.routers11.msg_count.Response_Data::1     10614508                      
system.ruby.network.routers11.msg_count.Response_Control::1      7970035                      
system.ruby.network.routers11.msg_bytes.Control::0     49995688                      
system.ruby.network.routers11.msg_bytes.Response_Data::1    764244576                      
system.ruby.network.routers11.msg_bytes.Response_Control::1     63760280                      
system.ruby.network.routers12.percent_links_utilized     0.106107                      
system.ruby.network.routers12.msg_count.Control::0     17203904                      
system.ruby.network.routers12.msg_count.Request_Control::2      1818269                      
system.ruby.network.routers12.msg_count.Response_Data::1     21604087                      
system.ruby.network.routers12.msg_count.Response_Control::1     18387302                      
system.ruby.network.routers12.msg_count.Response_Control::2      9596103                      
system.ruby.network.routers12.msg_count.Writeback_Data::0      4434541                      
system.ruby.network.routers12.msg_count.Writeback_Data::1       439342                      
system.ruby.network.routers12.msg_count.Writeback_Control::0      4638947                      
system.ruby.network.routers12.msg_bytes.Control::0    137631232                      
system.ruby.network.routers12.msg_bytes.Request_Control::2     14546152                      
system.ruby.network.routers12.msg_bytes.Response_Data::1   1555494264                      
system.ruby.network.routers12.msg_bytes.Response_Control::1    147098416                      
system.ruby.network.routers12.msg_bytes.Response_Control::2     76768824                      
system.ruby.network.routers12.msg_bytes.Writeback_Data::0    319286952                      
system.ruby.network.routers12.msg_bytes.Writeback_Data::1     31632624                      
system.ruby.network.routers12.msg_bytes.Writeback_Control::0     37111576                      
system.ruby.network.msg_count.Control        51611712                      
system.ruby.network.msg_count.Request_Control      4599600                      
system.ruby.network.msg_count.Response_Data     64245163                      
system.ruby.network.msg_count.Response_Control     83950215                      
system.ruby.network.msg_count.Writeback_Data     14621649                      
system.ruby.network.msg_count.Writeback_Control     13916841                      
system.ruby.network.msg_byte.Control        412893696                      
system.ruby.network.msg_byte.Request_Control     36796800                      
system.ruby.network.msg_byte.Response_Data   4625651736                      
system.ruby.network.msg_byte.Response_Control    671601720                      
system.ruby.network.msg_byte.Writeback_Data   1052758728                      
system.ruby.network.msg_byte.Writeback_Control    111334728                      
system.ruby.network.routers00.throttle0.link_utilization            0                      
system.ruby.network.routers00.throttle1.link_utilization            0                      
system.ruby.network.routers01.throttle0.link_utilization            0                      
system.ruby.network.routers01.throttle1.link_utilization            0                      
system.ruby.network.routers02.throttle0.link_utilization            0                      
system.ruby.network.routers02.throttle1.link_utilization            0                      
system.ruby.network.routers03.throttle0.link_utilization            0                      
system.ruby.network.routers03.throttle1.link_utilization            0                      
system.ruby.network.routers04.throttle0.link_utilization            0                      
system.ruby.network.routers04.throttle1.link_utilization            0                      
system.ruby.network.routers05.throttle0.link_utilization     0.191579                      
system.ruby.network.routers05.throttle0.msg_count.Request_Control::2         6328                      
system.ruby.network.routers05.throttle0.msg_count.Response_Data::1      4362622                      
system.ruby.network.routers05.throttle0.msg_count.Response_Control::1      4355515                      
system.ruby.network.routers05.throttle0.msg_bytes.Request_Control::2        50624                      
system.ruby.network.routers05.throttle0.msg_bytes.Response_Data::1    314108784                      
system.ruby.network.routers05.throttle0.msg_bytes.Response_Control::1     34844120                      
system.ruby.network.routers05.throttle1.link_utilization     0.210677                      
system.ruby.network.routers05.throttle1.msg_count.Control::0      4362646                      
system.ruby.network.routers05.throttle1.msg_count.Response_Data::1           34                      
system.ruby.network.routers05.throttle1.msg_count.Response_Control::1          146                      
system.ruby.network.routers05.throttle1.msg_count.Response_Control::2      4362643                      
system.ruby.network.routers05.throttle1.msg_count.Writeback_Data::0      4354708                      
system.ruby.network.routers05.throttle1.msg_count.Writeback_Data::1         6164                      
system.ruby.network.routers05.throttle1.msg_count.Writeback_Control::0          753                      
system.ruby.network.routers05.throttle1.msg_bytes.Control::0     34901168                      
system.ruby.network.routers05.throttle1.msg_bytes.Response_Data::1         2448                      
system.ruby.network.routers05.throttle1.msg_bytes.Response_Control::1         1168                      
system.ruby.network.routers05.throttle1.msg_bytes.Response_Control::2     34901144                      
system.ruby.network.routers05.throttle1.msg_bytes.Writeback_Data::0    313538976                      
system.ruby.network.routers05.throttle1.msg_bytes.Writeback_Data::1       443808                      
system.ruby.network.routers05.throttle1.msg_bytes.Writeback_Control::0         6024                      
system.ruby.network.routers06.throttle0.link_utilization     0.072387                      
system.ruby.network.routers06.throttle0.msg_count.Request_Control::2       414013                      
system.ruby.network.routers06.throttle0.msg_count.Response_Data::1      1650858                      
system.ruby.network.routers06.throttle0.msg_count.Response_Control::1      1211959                      
system.ruby.network.routers06.throttle0.msg_bytes.Request_Control::2      3312104                      
system.ruby.network.routers06.throttle0.msg_bytes.Response_Data::1    118861776                      
system.ruby.network.routers06.throttle0.msg_bytes.Response_Control::1      9695672                      
system.ruby.network.routers06.throttle1.link_utilization     0.026119                      
system.ruby.network.routers06.throttle1.msg_count.Control::0      1650860                      
system.ruby.network.routers06.throttle1.msg_count.Response_Data::1          685                      
system.ruby.network.routers06.throttle1.msg_count.Response_Control::1       269610                      
system.ruby.network.routers06.throttle1.msg_count.Response_Control::2      1357716                      
system.ruby.network.routers06.throttle1.msg_count.Writeback_Data::0        19366                      
system.ruby.network.routers06.throttle1.msg_count.Writeback_Data::1       144059                      
system.ruby.network.routers06.throttle1.msg_count.Writeback_Control::0      1192588                      
system.ruby.network.routers06.throttle1.msg_bytes.Control::0     13206880                      
system.ruby.network.routers06.throttle1.msg_bytes.Response_Data::1        49320                      
system.ruby.network.routers06.throttle1.msg_bytes.Response_Control::1      2156880                      
system.ruby.network.routers06.throttle1.msg_bytes.Response_Control::2     10861728                      
system.ruby.network.routers06.throttle1.msg_bytes.Writeback_Data::0      1394352                      
system.ruby.network.routers06.throttle1.msg_bytes.Writeback_Data::1     10372248                      
system.ruby.network.routers06.throttle1.msg_bytes.Writeback_Control::0      9540704                      
system.ruby.network.routers07.throttle0.link_utilization     0.072161                      
system.ruby.network.routers07.throttle0.msg_count.Request_Control::2       297981                      
system.ruby.network.routers07.throttle0.msg_count.Response_Data::1      1645940                      
system.ruby.network.routers07.throttle0.msg_count.Response_Control::1      1320727                      
system.ruby.network.routers07.throttle0.msg_bytes.Request_Control::2      2383848                      
system.ruby.network.routers07.throttle0.msg_bytes.Response_Data::1    118507680                      
system.ruby.network.routers07.throttle0.msg_bytes.Response_Control::1     10565816                      
system.ruby.network.routers07.throttle1.link_utilization     0.028366                      
system.ruby.network.routers07.throttle1.msg_count.Control::0      1645941                      
system.ruby.network.routers07.throttle1.msg_count.Response_Data::1          425                      
system.ruby.network.routers07.throttle1.msg_count.Response_Control::1       108734                      
system.ruby.network.routers07.throttle1.msg_count.Response_Control::2      1517677                      
system.ruby.network.routers07.throttle1.msg_count.Writeback_Data::0        20146                      
system.ruby.network.routers07.throttle1.msg_count.Writeback_Data::1       189033                      
system.ruby.network.routers07.throttle1.msg_count.Writeback_Control::0      1300579                      
system.ruby.network.routers07.throttle1.msg_bytes.Control::0     13167528                      
system.ruby.network.routers07.throttle1.msg_bytes.Response_Data::1        30600                      
system.ruby.network.routers07.throttle1.msg_bytes.Response_Control::1       869872                      
system.ruby.network.routers07.throttle1.msg_bytes.Response_Control::2     12141416                      
system.ruby.network.routers07.throttle1.msg_bytes.Writeback_Data::0      1450512                      
system.ruby.network.routers07.throttle1.msg_bytes.Writeback_Data::1     13610376                      
system.ruby.network.routers07.throttle1.msg_bytes.Writeback_Control::0     10404632                      
system.ruby.network.routers08.throttle0.link_utilization     0.072002                      
system.ruby.network.routers08.throttle0.msg_count.Request_Control::2       527837                      
system.ruby.network.routers08.throttle0.msg_count.Response_Data::1      1642006                      
system.ruby.network.routers08.throttle0.msg_count.Response_Control::1      1090153                      
system.ruby.network.routers08.throttle0.msg_bytes.Request_Control::2      4222696                      
system.ruby.network.routers08.throttle0.msg_bytes.Response_Data::1    118224432                      
system.ruby.network.routers08.throttle0.msg_bytes.Response_Control::1      8721224                      
system.ruby.network.routers08.throttle1.link_utilization     0.021781                      
system.ruby.network.routers08.throttle1.msg_count.Control::0      1642007                      
system.ruby.network.routers08.throttle1.msg_count.Response_Data::1         2044                      
system.ruby.network.routers08.throttle1.msg_count.Response_Control::1       481072                      
system.ruby.network.routers08.throttle1.msg_count.Response_Control::2      1170673                      
system.ruby.network.routers08.throttle1.msg_count.Writeback_Data::0        18231                      
system.ruby.network.routers08.throttle1.msg_count.Writeback_Data::1        45741                      
system.ruby.network.routers08.throttle1.msg_count.Writeback_Control::0      1071920                      
system.ruby.network.routers08.throttle1.msg_bytes.Control::0     13136056                      
system.ruby.network.routers08.throttle1.msg_bytes.Response_Data::1       147168                      
system.ruby.network.routers08.throttle1.msg_bytes.Response_Control::1      3848576                      
system.ruby.network.routers08.throttle1.msg_bytes.Response_Control::2      9365384                      
system.ruby.network.routers08.throttle1.msg_bytes.Writeback_Data::0      1312632                      
system.ruby.network.routers08.throttle1.msg_bytes.Writeback_Data::1      3293352                      
system.ruby.network.routers08.throttle1.msg_bytes.Writeback_Control::0      8575360                      
system.ruby.network.routers09.throttle0.link_utilization     0.072653                      
system.ruby.network.routers09.throttle0.msg_count.Request_Control::2       572110                      
system.ruby.network.routers09.throttle0.msg_count.Response_Data::1      1652988                      
system.ruby.network.routers09.throttle0.msg_count.Response_Control::1      1095199                      
system.ruby.network.routers09.throttle0.msg_bytes.Request_Control::2      4576880                      
system.ruby.network.routers09.throttle0.msg_bytes.Response_Data::1    119015136                      
system.ruby.network.routers09.throttle0.msg_bytes.Response_Control::1      8761592                      
system.ruby.network.routers09.throttle1.link_utilization     0.024987                      
system.ruby.network.routers09.throttle1.msg_count.Control::0      1652989                      
system.ruby.network.routers09.throttle1.msg_count.Response_Data::1        67154                      
system.ruby.network.routers09.throttle1.msg_count.Response_Control::1       484188                      
system.ruby.network.routers09.throttle1.msg_count.Response_Control::2      1187394                      
system.ruby.network.routers09.throttle1.msg_count.Writeback_Data::0        22090                      
system.ruby.network.routers09.throttle1.msg_count.Writeback_Data::1        54345                      
system.ruby.network.routers09.throttle1.msg_count.Writeback_Control::0      1073107                      
system.ruby.network.routers09.throttle1.msg_bytes.Control::0     13223912                      
system.ruby.network.routers09.throttle1.msg_bytes.Response_Data::1      4835088                      
system.ruby.network.routers09.throttle1.msg_bytes.Response_Control::1      3873504                      
system.ruby.network.routers09.throttle1.msg_bytes.Response_Control::2      9499152                      
system.ruby.network.routers09.throttle1.msg_bytes.Writeback_Data::0      1590480                      
system.ruby.network.routers09.throttle1.msg_bytes.Writeback_Data::1      3912840                      
system.ruby.network.routers09.throttle1.msg_bytes.Writeback_Control::0      8584856                      
system.ruby.network.routers10.throttle0.link_utilization     0.584622                      
system.ruby.network.routers10.throttle0.msg_count.Control::0     10954443                      
system.ruby.network.routers10.throttle0.msg_count.Response_Data::1      6284626                      
system.ruby.network.routers10.throttle0.msg_count.Response_Control::1      7511255                      
system.ruby.network.routers10.throttle0.msg_count.Response_Control::2      9596103                      
system.ruby.network.routers10.throttle0.msg_count.Writeback_Data::0      4434541                      
system.ruby.network.routers10.throttle0.msg_count.Writeback_Data::1       439342                      
system.ruby.network.routers10.throttle0.msg_count.Writeback_Control::0      4638947                      
system.ruby.network.routers10.throttle0.msg_bytes.Control::0     87635544                      
system.ruby.network.routers10.throttle0.msg_bytes.Response_Data::1    452493072                      
system.ruby.network.routers10.throttle0.msg_bytes.Response_Control::1     60090040                      
system.ruby.network.routers10.throttle0.msg_bytes.Response_Control::2     76768824                      
system.ruby.network.routers10.throttle0.msg_bytes.Writeback_Data::0    319286952                      
system.ruby.network.routers10.throttle0.msg_bytes.Writeback_Data::1     31632624                      
system.ruby.network.routers10.throttle0.msg_bytes.Writeback_Control::0     37111576                      
system.ruby.network.routers10.throttle1.link_utilization     0.661103                      
system.ruby.network.routers10.throttle1.msg_count.Control::0      6249461                      
system.ruby.network.routers10.throttle1.msg_count.Request_Control::2       963062                      
system.ruby.network.routers10.throttle1.msg_count.Response_Data::1     14717186                      
system.ruby.network.routers10.throttle1.msg_count.Response_Control::1     10876011                      
system.ruby.network.routers10.throttle1.msg_bytes.Control::0     49995688                      
system.ruby.network.routers10.throttle1.msg_bytes.Request_Control::2      7704496                      
system.ruby.network.routers10.throttle1.msg_bytes.Response_Data::1   1059637392                      
system.ruby.network.routers10.throttle1.msg_bytes.Response_Control::1     87008088                      
system.ruby.network.routers11.throttle0.link_utilization     0.207880                      
system.ruby.network.routers11.throttle0.msg_count.Control::0      6249461                      
system.ruby.network.routers11.throttle0.msg_count.Response_Data::1      4365047                      
system.ruby.network.routers11.throttle0.msg_count.Response_Control::1      1802494                      
system.ruby.network.routers11.throttle0.msg_bytes.Control::0     49995688                      
system.ruby.network.routers11.throttle0.msg_bytes.Response_Data::1    314283384                      
system.ruby.network.routers11.throttle0.msg_bytes.Response_Control::1     14419952                      
system.ruby.network.routers11.throttle1.link_utilization     0.274082                      
system.ruby.network.routers11.throttle1.msg_count.Response_Data::1      6249461                      
[...]
system.ruby.L1Cache_Controller.NP.Inv::total       975265                      
system.ruby.L1Cache_Controller.I.L1_Replacement |           0      0.00%      0.00% |           2     33.33%     33.33% |           2     33.33%     66.67% |           2     33.33%    100.00% |           0      0.00%    100.00%
system.ruby.L1Cache_Controller.I.L1_Replacement::total            6                      
system.ruby.L1Cache_Controller.S.Load    |           1    100.00%    100.00% |           0      0.00%    100.00% |           0      0.00%    100.00% |           0      0.00%    100.00% |           0      0.00%    100.00%
system.ruby.L1Cache_Controller.S.Load::total            1                      
system.ruby.L1Cache_Controller.S.Store   |          24     82.76%     82.76% |           2      6.90%     89.66% |           1      3.45%     93.10% |           1      3.45%     96.55% |           1      3.45%    100.00%
system.ruby.L1Cache_Controller.S.Store::total           29                      
system.ruby.L1Cache_Controller.S.L0_Invalidate_Own |           1      0.00%      0.00% |      277300     26.52%     26.52% |      128307     12.27%     38.80% |      331735     31.73%     70.53% |      308156     29.47%    100.00%
system.ruby.L1Cache_Controller.S.L0_Invalidate_Own::total      1045499                      
system.ruby.L1Cache_Controller.S.L0_Invalidate_Else |           3      0.00%      0.00% |       16618      4.67%      4.67% |         518      0.15%      4.82% |      173742     48.84%     53.66% |      164824     46.34%    100.00%
system.ruby.L1Cache_Controller.S.L0_Invalidate_Else::total       355705                      
system.ruby.L1Cache_Controller.SS.Load   |           2      0.02%      0.02% |         329      4.02%      4.05% |         193      2.36%      6.41% |         933     11.41%     17.82% |        6719     82.18%    100.00%
system.ruby.L1Cache_Controller.SS.Load::total         8176                      
system.ruby.L1Cache_Controller.SS.Inv    |          17      0.00%      0.00% |       16628      4.61%      4.61% |         529      0.15%      4.76% |      173786     48.16%     52.92% |      169896     47.08%    100.00%
system.ruby.L1Cache_Controller.SS.Inv::total       360856                      
system.ruby.L1Cache_Controller.SS.L1_Replacement |           1      0.00%      0.00% |      277301     25.98%     25.98% |      128308     12.02%     38.00% |      331777     31.08%     69.09% |      329940     30.91%    100.00%
system.ruby.L1Cache_Controller.SS.L1_Replacement::total      1067327                      
system.ruby.L1Cache_Controller.E.WriteBack |        1093      0.02%      0.02% |     1335349     26.21%     26.23% |     1491343     29.27%     55.50% |     1116355     21.91%     77.42% |     1150550     22.58%    100.00%
system.ruby.L1Cache_Controller.E.WriteBack::total      5094690                      
system.ruby.L1Cache_Controller.E.L0_Invalidate_Own |       15055     18.78%     18.78% |       15667     19.55%     38.33% |       16713     20.85%     59.18% |       14523     18.12%     77.30% |       18194     22.70%    100.00%
system.ruby.L1Cache_Controller.E.L0_Invalidate_Own::total        80152                      
system.ruby.L1Cache_Controller.E.L0_Invalidate_Else |         162      0.87%      0.87% |         943      5.07%      5.94% |        3510     18.88%     24.83% |        1252      6.73%     31.56% |       12723     68.44%    100.00%
system.ruby.L1Cache_Controller.E.L0_Invalidate_Else::total        18590                      
system.ruby.L1Cache_Controller.EE.Load   |          14     29.17%     29.17% |           0      0.00%     29.17% |           4      8.33%     37.50% |           9     18.75%     56.25% |          21     43.75%    100.00%
system.ruby.L1Cache_Controller.EE.Load::total           48                      
system.ruby.L1Cache_Controller.EE.Inv    |         129      1.69%      1.69% |         606      7.94%      9.63% |        3307     43.35%     52.98% |         232      3.04%     56.02% |        3355     43.98%    100.00%
system.ruby.L1Cache_Controller.EE.Inv::total         7629                      
system.ruby.L1Cache_Controller.EE.L1_Replacement |       11876     15.75%     15.75% |       15247     20.22%     35.98% |       16291     21.61%     57.59% |       14151     18.77%     76.36% |       17822     23.64%    100.00%
system.ruby.L1Cache_Controller.EE.L1_Replacement::total        75387                      
system.ruby.L1Cache_Controller.EE.Fwd_GETX |           2    100.00%    100.00% |           0      0.00%    100.00% |           0      0.00%    100.00% |           0      0.00%    100.00% |           0      0.00%    100.00%
system.ruby.L1Cache_Controller.EE.Fwd_GETX::total            2                      
system.ruby.L1Cache_Controller.EE.Fwd_GETS |           4      0.04%      0.04% |         336      3.08%      3.12% |         198      1.81%      4.93% |        1015      9.30%     14.23% |        9360     85.77%    100.00%
system.ruby.L1Cache_Controller.EE.Fwd_GETS::total        10913                      
system.ruby.L1Cache_Controller.M.WriteBack |     4342018     87.18%     87.18% |      157016      3.15%     90.33% |      161170      3.24%     93.57% |      165266      3.32%     96.88% |      155165      3.12%    100.00%
system.ruby.L1Cache_Controller.M.WriteBack::total      4980635                      
system.ruby.L1Cache_Controller.M.L0_Invalidate_Own |        3208     77.19%     77.19% |         225      5.41%     82.60% |         219      5.27%     87.87% |         285      6.86%     94.73% |         219      5.27%    100.00%
system.ruby.L1Cache_Controller.M.L0_Invalidate_Own::total         4156                      
system.ruby.L1Cache_Controller.M.L0_Invalidate_Else |         531     28.55%     28.55% |         323     17.37%     45.91% |         314     16.88%     62.80% |         415     22.31%     85.11% |         277     14.89%    100.00%
system.ruby.L1Cache_Controller.M.L0_Invalidate_Else::total         1860                      
system.ruby.L1Cache_Controller.MM.Load   |         149      0.02%      0.02% |      152406     24.57%     24.59% |      156553     25.23%     49.82% |      160756     25.91%     75.74% |      150528     24.26%    100.00%
system.ruby.L1Cache_Controller.MM.Load::total       620392                      
system.ruby.L1Cache_Controller.MM.Store  |          29    100.00%    100.00% |           0      0.00%    100.00% |           0      0.00%    100.00% |           0      0.00%    100.00% |           0      0.00%    100.00%
system.ruby.L1Cache_Controller.MM.Store::total           29                      
system.ruby.L1Cache_Controller.MM.Inv    |        6164      1.40%      1.40% |      144056     32.79%     34.19% |      189031     43.03%     77.22% |       45740     10.41%     87.63% |       54342     12.37%    100.00%
system.ruby.L1Cache_Controller.MM.Inv::total       439333                      
system.ruby.L1Cache_Controller.MM.L1_Replacement |     4343585     48.27%     48.27% |     1196707     13.30%     61.57% |     1304434     14.50%     76.07% |     1076000     11.96%     88.03% |     1077375     11.97%    100.00%
system.ruby.L1Cache_Controller.MM.L1_Replacement::total      8998101                      
system.ruby.L1Cache_Controller.MM.Fwd_GETX |           0      0.00%      0.00% |           3     30.00%     30.00% |           3     30.00%     60.00% |           4     40.00%    100.00% |           0      0.00%    100.00%
system.ruby.L1Cache_Controller.MM.Fwd_GETX::total           10                      
system.ruby.L1Cache_Controller.MM.Fwd_GETS |          12      0.05%      0.05% |           5      0.02%      0.07% |          13      0.05%      0.12% |           5      0.02%      0.14% |       24216     99.86%    100.00%
system.ruby.L1Cache_Controller.MM.Fwd_GETS::total        24251                      
system.ruby.L1Cache_Controller.IS.Data_Exclusive |       16931      0.33%      0.33% |     1351963     26.03%     26.35% |     1512003     29.11%     55.46% |     1132123     21.79%     77.26% |     1181448     22.74%    100.00%
system.ruby.L1Cache_Controller.IS.Data_Exclusive::total      5194468                      
system.ruby.L1Cache_Controller.IS.DataS_fromL1 |          30      0.09%      0.09% |         558      1.59%      1.67% |         477      1.36%      3.03% |       33324     94.76%     97.79% |         776      2.21%    100.00%
system.ruby.L1Cache_Controller.IS.DataS_fromL1::total        35165                      
system.ruby.L1Cache_Controller.IS.Data_all_Acks |           3      0.00%      0.00% |      293144     21.58%     21.58% |      128264      9.44%     31.02% |      471334     34.70%     65.72% |      465595     34.28%    100.00%
system.ruby.L1Cache_Controller.IS.Data_all_Acks::total      1358340                      
system.ruby.L1Cache_Controller.IM.Data_all_Acks |     4345658     99.52%     99.52% |        5193      0.12%     99.64% |        5196      0.12%     99.76% |        5225      0.12%     99.88% |        5169      0.12%    100.00%
system.ruby.L1Cache_Controller.IM.Data_all_Acks::total      4366441                      
system.ruby.L1Cache_Controller.SM.Ack    |          30     83.33%     83.33% |           3      8.33%     91.67% |           1      2.78%     94.44% |           1      2.78%     97.22% |           1      2.78%    100.00%
system.ruby.L1Cache_Controller.SM.Ack::total           36                      
system.ruby.L1Cache_Controller.SM.Ack_all |          24     82.76%     82.76% |           2      6.90%     89.66% |           1      3.45%     93.10% |           1      3.45%     96.55% |           1      3.45%    100.00%
system.ruby.L1Cache_Controller.SM.Ack_all::total           29                      
system.ruby.L1Cache_Controller.M_I.Inv   |           0      0.00%      0.00% |           3     33.33%     33.33% |           2     22.22%     55.56% |           1     11.11%     66.67% |           3     33.33%    100.00%
system.ruby.L1Cache_Controller.M_I.Inv::total            9                      
system.ruby.L1Cache_Controller.M_I.Fwd_GETS |           0      0.00%      0.00% |           0      0.00%      0.00% |           0      0.00%      0.00% |           0      0.00%      0.00% |           1    100.00%    100.00%
system.ruby.L1Cache_Controller.M_I.Fwd_GETS::total            1                      
system.ruby.L1Cache_Controller.M_I.WB_Ack |     4355461     48.00%     48.00% |     1211951     13.36%     61.36% |     1320723     14.56%     75.92% |     1090150     12.01%     87.93% |     1095193     12.07%    100.00%
system.ruby.L1Cache_Controller.M_I.WB_Ack::total      9073478                      
system.ruby.L1Cache_Controller.SINK_WB_ACK.WB_Ack |           0      0.00%      0.00% |           3     30.00%     30.00% |           2     20.00%     50.00% |           1     10.00%     60.00% |           4     40.00%    100.00%
system.ruby.L1Cache_Controller.SINK_WB_ACK.WB_Ack::total           10                      
system.ruby.L1Cache_Controller.S_IL0.L0_Invalidate_Own |           1      0.00%      0.00% |      277360     26.52%     26.52% |      128307     12.27%     38.78% |      331927     31.73%     70.52% |      308375     29.48%    100.00%
system.ruby.L1Cache_Controller.S_IL0.L0_Invalidate_Own::total      1045970                      
system.ruby.L1Cache_Controller.S_IL0.L0_Invalidate_Else |           3      0.00%      0.00% |       16626      4.67%      4.67% |         518      0.15%      4.82% |      173752     48.84%     53.66% |      164837     46.34%    100.00%
system.ruby.L1Cache_Controller.S_IL0.L0_Invalidate_Else::total       355736                      
system.ruby.L1Cache_Controller.S_IL0.L0_Ack |           4      0.00%      0.00% |      293918     20.98%     20.98% |      128825      9.19%     30.17% |      505477     36.07%     66.24% |      472980     33.76%    100.00%
system.ruby.L1Cache_Controller.S_IL0.L0_Ack::total      1401204                      
system.ruby.L1Cache_Controller.E_IL0.L0_DataAck |        3192     67.02%     67.02% |         421      8.84%     75.86% |         423      8.88%     84.74% |         368      7.73%     92.46% |         359      7.54%    100.00%
system.ruby.L1Cache_Controller.E_IL0.L0_DataAck::total         4763                      
system.ruby.L1Cache_Controller.E_IL0.L0_Invalidate_Own |       15055     18.78%     18.78% |       15667     19.55%     38.33% |       16713     20.85%     59.18% |       14523     18.12%     77.30% |       18194     22.70%    100.00%
system.ruby.L1Cache_Controller.E_IL0.L0_Invalidate_Own::total        80152                      
system.ruby.L1Cache_Controller.E_IL0.L0_Invalidate_Else |         162      0.87%      0.87% |         943      5.07%      5.94% |        3510     18.88%     24.83% |        1252      6.73%     31.56% |       12723     68.44%    100.00%
system.ruby.L1Cache_Controller.E_IL0.L0_Invalidate_Else::total        18590                      
system.ruby.L1Cache_Controller.E_IL0.L0_Ack |       12025     12.80%     12.80% |       16189     17.23%     30.02% |       19800     21.07%     51.09% |       15407     16.39%     67.48% |       30558     32.52%    100.00%
system.ruby.L1Cache_Controller.E_IL0.L0_Ack::total        93979                      
system.ruby.L1Cache_Controller.M_IL0.L0_DataAck |        3702     80.08%     80.08% |         241      5.21%     85.29% |         248      5.36%     90.66% |         263      5.69%     96.34% |         169      3.66%    100.00%
system.ruby.L1Cache_Controller.M_IL0.L0_DataAck::total         4623                      
system.ruby.L1Cache_Controller.M_IL0.L0_Invalidate_Own |        3208     77.19%     77.19% |         225      5.41%     82.60% |         219      5.27%     87.87% |         285      6.86%     94.73% |         219      5.27%    100.00%
system.ruby.L1Cache_Controller.M_IL0.L0_Invalidate_Own::total         4156                      
system.ruby.L1Cache_Controller.M_IL0.L0_Invalidate_Else |         531     28.55%     28.55% |         323     17.37%     45.91% |         314     16.88%     62.80% |         415     22.31%     85.11% |         277     14.89%    100.00%
system.ruby.L1Cache_Controller.M_IL0.L0_Invalidate_Else::total         1860                      
system.ruby.L1Cache_Controller.M_IL0.L0_Ack |          37      2.66%      2.66% |         307     22.04%     24.69% |         285     20.46%     45.15% |         437     31.37%     76.53% |         327     23.47%    100.00%
system.ruby.L1Cache_Controller.M_IL0.L0_Ack::total         1393                      
system.ruby.L2Cache_Controller.L1_GETS        6588341      0.00%      0.00%
system.ruby.L2Cache_Controller.L1_GETX        4366468      0.00%      0.00%
system.ruby.L2Cache_Controller.L1_UPGRADE           29      0.00%      0.00%
system.ruby.L2Cache_Controller.L1_PUTX        9073480      0.00%      0.00%
system.ruby.L2Cache_Controller.L1_PUTX_old           18      0.00%      0.00%
system.ruby.L2Cache_Controller.L2_Replacement      4351874      0.00%      0.00%
system.ruby.L2Cache_Controller.L2_Replacement_clean      1815667      0.00%      0.00%
system.ruby.L2Cache_Controller.Mem_Data       6249461      0.00%      0.00%
system.ruby.L2Cache_Controller.Mem_Ack        6167541      0.00%      0.00%
system.ruby.L2Cache_Controller.WB_Data          24156      0.00%      0.00%
system.ruby.L2Cache_Controller.WB_Data_clean       450351      0.00%      0.00%
system.ruby.L2Cache_Controller.Ack             855200      0.00%      0.00%
system.ruby.L2Cache_Controller.Ack_all         488514      0.00%      0.00%
system.ruby.L2Cache_Controller.Unblock          35165      0.00%      0.00%
system.ruby.L2Cache_Controller.Exclusive_Unblock      9560938      0.00%      0.00%
system.ruby.L2Cache_Controller.NP.L1_GETS      1886361      0.00%      0.00%
system.ruby.L2Cache_Controller.NP.L1_GETX      4363100      0.00%      0.00%
system.ruby.L2Cache_Controller.NP.L1_PUTX_old            9      0.00%      0.00%
system.ruby.L2Cache_Controller.SS.L1_GETS       341557      0.00%      0.00%
system.ruby.L2Cache_Controller.SS.L1_UPGRADE           29      0.00%      0.00%
system.ruby.L2Cache_Controller.SS.L1_PUTX            1      0.00%      0.00%
system.ruby.L2Cache_Controller.SS.L2_Replacement        10900      0.00%      0.00%
system.ruby.L2Cache_Controller.SS.L2_Replacement_clean       469985      0.00%      0.00%
system.ruby.L2Cache_Controller.M.L1_GETS      3757792      0.00%      0.00%
system.ruby.L2Cache_Controller.M.L1_GETX         3329      0.00%      0.00%
system.ruby.L2Cache_Controller.M.L2_Replacement      4340292      0.00%      0.00%
system.ruby.L2Cache_Controller.M.L2_Replacement_clean       899393      0.00%      0.00%
system.ruby.L2Cache_Controller.MT.L1_GETS        35165      0.00%      0.00%
system.ruby.L2Cache_Controller.MT.L1_GETX           12      0.00%      0.00%
system.ruby.L2Cache_Controller.MT.L1_PUTX      9073478      0.00%      0.00%
system.ruby.L2Cache_Controller.MT.L2_Replacement          682      0.00%      0.00%
system.ruby.L2Cache_Controller.MT.L2_Replacement_clean       446289      0.00%      0.00%
system.ruby.L2Cache_Controller.M_I.L1_GETS          233      0.00%      0.00%
system.ruby.L2Cache_Controller.M_I.L1_GETX           21      0.00%      0.00%
system.ruby.L2Cache_Controller.M_I.Mem_Ack      6167541      0.00%      0.00%
system.ruby.L2Cache_Controller.MT_I.WB_Data           46      0.00%      0.00%
system.ruby.L2Cache_Controller.MT_I.WB_Data_clean           57      0.00%      0.00%
system.ruby.L2Cache_Controller.MT_I.Ack_all          579      0.00%      0.00%
system.ruby.L2Cache_Controller.MCT_I.L1_PUTX_old            9      0.00%      0.00%
system.ruby.L2Cache_Controller.MCT_I.WB_Data        13173      0.00%      0.00%
system.ruby.L2Cache_Controller.MCT_I.WB_Data_clean       426066      0.00%      0.00%
system.ruby.L2Cache_Controller.MCT_I.Ack_all         7050      0.00%      0.00%
system.ruby.L2Cache_Controller.I_I.L1_GETS            2      0.00%      0.00%
system.ruby.L2Cache_Controller.I_I.Ack         829225      0.00%      0.00%
system.ruby.L2Cache_Controller.I_I.Ack_all       469985      0.00%      0.00%
system.ruby.L2Cache_Controller.S_I.L1_GETS            1      0.00%      0.00%
system.ruby.L2Cache_Controller.S_I.Ack          25975      0.00%      0.00%
system.ruby.L2Cache_Controller.S_I.Ack_all        10900      0.00%      0.00%
system.ruby.L2Cache_Controller.ISS.L1_GETS       449685      0.00%      0.00%
system.ruby.L2Cache_Controller.ISS.Mem_Data      1436676      0.00%      0.00%
system.ruby.L2Cache_Controller.IS.L1_GETS       117413      0.00%      0.00%
system.ruby.L2Cache_Controller.IS.Mem_Data       449685      0.00%      0.00%
system.ruby.L2Cache_Controller.IM.L1_GETX            3      0.00%      0.00%
system.ruby.L2Cache_Controller.IM.Mem_Data      4363100      0.00%      0.00%
system.ruby.L2Cache_Controller.SS_MB.Exclusive_Unblock           29      0.00%      0.00%
system.ruby.L2Cache_Controller.MT_MB.L1_GETS           96      0.00%      0.00%
system.ruby.L2Cache_Controller.MT_MB.L1_GETX            3      0.00%      0.00%
system.ruby.L2Cache_Controller.MT_MB.Exclusive_Unblock      9560909      0.00%      0.00%
system.ruby.L2Cache_Controller.MT_IIB.L1_GETS           36      0.00%      0.00%
system.ruby.L2Cache_Controller.MT_IIB.L1_PUTX            1      0.00%      0.00%
system.ruby.L2Cache_Controller.MT_IIB.WB_Data        10745      0.00%      0.00%
system.ruby.L2Cache_Controller.MT_IIB.WB_Data_clean        23771      0.00%      0.00%
system.ruby.L2Cache_Controller.MT_IIB.Unblock          649      0.00%      0.00%
system.ruby.L2Cache_Controller.MT_IB.WB_Data          192      0.00%      0.00%
system.ruby.L2Cache_Controller.MT_IB.WB_Data_clean          457      0.00%      0.00%
system.ruby.L2Cache_Controller.MT_SB.Unblock        34516      0.00%      0.00%

---------- End Simulation Statistics   ----------
