
---------- Begin Simulation Statistics ----------
sim_seconds                                  0.932987                       # Number of seconds simulated
sim_ticks                                932986559500                       # Number of ticks simulated
final_tick                               932986559500                       # Number of ticks from beginning of simulation (restored from checkpoints and never reset)
sim_freq                                 1000000000000                       # Frequency of simulated ticks
host_inst_rate                                 136409                       # Simulator instruction rate (inst/s)
host_op_rate                                   364531                       # Simulator op (including micro ops) rate (op/s)
host_tick_rate                              206342560                       # Simulator tick rate (ticks/s)
host_mem_usage                                 950584                       # Number of bytes of host memory used
host_seconds                                  4521.54                       # Real time elapsed on the host
sim_insts                                   616781192                       # Number of instructions simulated
sim_ops                                    1648243767                       # Number of ops (including micro ops) simulated
system.voltage_domain.voltage                       1                       # Voltage in Volts
system.clk_domain.clock                          1000                       # Clock period in ticks
system.mem_ctrls.bytes_read::ruby.dir_cntrl0     28953728                       # Number of bytes read from this memory
system.mem_ctrls.bytes_read::total           28953728                       # Number of bytes read from this memory
system.mem_ctrls.bytes_written::ruby.dir_cntrl0     11468416                       # Number of bytes written to this memory
system.mem_ctrls.bytes_written::total        11468416                       # Number of bytes written to this memory
system.mem_ctrls.num_reads::ruby.dir_cntrl0       452402                       # Number of read requests responded to by this memory
system.mem_ctrls.num_reads::total              452402                       # Number of read requests responded to by this memory
system.mem_ctrls.num_writes::ruby.dir_cntrl0       179194                       # Number of write requests responded to by this memory
system.mem_ctrls.num_writes::total             179194                       # Number of write requests responded to by this memory
system.mem_ctrls.bw_read::ruby.dir_cntrl0     31033382                       # Total read bandwidth from this memory (bytes/s)
system.mem_ctrls.bw_read::total              31033382                       # Total read bandwidth from this memory (bytes/s)
system.mem_ctrls.bw_write::ruby.dir_cntrl0     12292156                       # Write bandwidth from this memory (bytes/s)
system.mem_ctrls.bw_write::total             12292156                       # Write bandwidth from this memory (bytes/s)
system.mem_ctrls.bw_total::ruby.dir_cntrl0     43325537                       # Total bandwidth to/from this memory (bytes/s)
system.mem_ctrls.bw_total::total             43325537                       # Total bandwidth to/from this memory (bytes/s)
system.mem_ctrls.readReqs                      452402                       # Number of read requests accepted
system.mem_ctrls.writeReqs                     179194                       # Number of write requests accepted
system.mem_ctrls.readBursts                    452402                       # Number of DRAM read bursts, including those serviced by the write queue
system.mem_ctrls.writeBursts                   179194                       # Number of DRAM write bursts, including those merged in the write queue
system.mem_ctrls.bytesReadDRAM               28953152                       # Total number of bytes read from DRAM
system.mem_ctrls.bytesReadWrQ                     576                       # Total number of bytes read from write queue
system.mem_ctrls.bytesWritten                11467072                       # Total number of bytes written to DRAM
system.mem_ctrls.bytesReadSys                28953728                       # Total read bytes from the system interface side
system.mem_ctrls.bytesWrittenSys             11468416                       # Total written bytes from the system interface side
system.mem_ctrls.servicedByWrQ                      9                       # Number of DRAM read bursts serviced by the write queue
system.mem_ctrls.mergedWrBursts                     0                       # Number of DRAM write bursts merged with an existing one
system.mem_ctrls.neitherReadNorWriteReqs            0                       # Number of requests that are neither read nor write
system.mem_ctrls.perBankRdBursts::0             28300                       # Per bank write bursts
system.mem_ctrls.perBankRdBursts::1             27841                       # Per bank write bursts
system.mem_ctrls.perBankRdBursts::2             28149                       # Per bank write bursts
system.mem_ctrls.perBankRdBursts::3             27447                       # Per bank write bursts
system.mem_ctrls.perBankRdBursts::4             28241                       # Per bank write bursts
system.mem_ctrls.perBankRdBursts::5             28262                       # Per bank write bursts
system.mem_ctrls.perBankRdBursts::6             28448                       # Per bank write bursts
system.mem_ctrls.perBankRdBursts::7             28194                       # Per bank write bursts
system.mem_ctrls.perBankRdBursts::8             28653                       # Per bank write bursts
system.mem_ctrls.perBankRdBursts::9             28751                       # Per bank write bursts
system.mem_ctrls.perBankRdBursts::10            28888                       # Per bank write bursts
system.mem_ctrls.perBankRdBursts::11            28496                       # Per bank write bursts
system.mem_ctrls.perBankRdBursts::12            28659                       # Per bank write bursts
system.mem_ctrls.perBankRdBursts::13            28409                       # Per bank write bursts
system.mem_ctrls.perBankRdBursts::14            28144                       # Per bank write bursts
system.mem_ctrls.perBankRdBursts::15            27511                       # Per bank write bursts
system.mem_ctrls.perBankWrBursts::0             11334                       # Per bank write bursts
system.mem_ctrls.perBankWrBursts::1             10880                       # Per bank write bursts
system.mem_ctrls.perBankWrBursts::2             11181                       # Per bank write bursts
system.mem_ctrls.perBankWrBursts::3             10459                       # Per bank write bursts
system.mem_ctrls.perBankWrBursts::4             11136                       # Per bank write bursts
system.mem_ctrls.perBankWrBursts::5             10852                       # Per bank write bursts
system.mem_ctrls.perBankWrBursts::6             11009                       # Per bank write bursts
system.mem_ctrls.perBankWrBursts::7             10825                       # Per bank write bursts
system.mem_ctrls.perBankWrBursts::8             11490                       # Per bank write bursts
system.mem_ctrls.perBankWrBursts::9             11487                       # Per bank write bursts
system.mem_ctrls.perBankWrBursts::10            11745                       # Per bank write bursts
system.mem_ctrls.perBankWrBursts::11            11354                       # Per bank write bursts
system.mem_ctrls.perBankWrBursts::12            11701                       # Per bank write bursts
system.mem_ctrls.perBankWrBursts::13            11499                       # Per bank write bursts
system.mem_ctrls.perBankWrBursts::14            11469                       # Per bank write bursts
system.mem_ctrls.perBankWrBursts::15            10752                       # Per bank write bursts
system.mem_ctrls.numRdRetry                         0                       # Number of times read queue was full causing retry
system.mem_ctrls.numWrRetry                         0                       # Number of times write queue was full causing retry
system.mem_ctrls.totGap                  932986498500                       # Total gap between requests
system.mem_ctrls.readPktSize::0                     0                       # Read request sizes (log2)
system.mem_ctrls.readPktSize::1                     0                       # Read request sizes (log2)
system.mem_ctrls.readPktSize::2                     0                       # Read request sizes (log2)
system.mem_ctrls.readPktSize::3                     0                       # Read request sizes (log2)
system.mem_ctrls.readPktSize::4                     0                       # Read request sizes (log2)
system.mem_ctrls.readPktSize::5                     0                       # Read request sizes (log2)
system.mem_ctrls.readPktSize::6                452402                       # Read request sizes (log2)
system.mem_ctrls.writePktSize::0                    0                       # Write request sizes (log2)
system.mem_ctrls.writePktSize::1                    0                       # Write request sizes (log2)
system.mem_ctrls.writePktSize::2                    0                       # Write request sizes (log2)
system.mem_ctrls.writePktSize::3                    0                       # Write request sizes (log2)
system.mem_ctrls.writePktSize::4                    0                       # Write request sizes (log2)
system.mem_ctrls.writePktSize::5                    0                       # Write request sizes (log2)
system.mem_ctrls.writePktSize::6               179194                       # Write request sizes (log2)
system.mem_ctrls.rdQLenPdf::0                  354778                       # What read queue length does an incoming req see
system.mem_ctrls.rdQLenPdf::1                   40071                       # What read queue length does an incoming req see
system.mem_ctrls.rdQLenPdf::2                   25978                       # What read queue length does an incoming req see
system.mem_ctrls.rdQLenPdf::3                   15031                       # What read queue length does an incoming req see
system.mem_ctrls.rdQLenPdf::4                    8178                       # What read queue length does an incoming req see
system.mem_ctrls.rdQLenPdf::5                    4604                       # What read queue length does an incoming req see
system.mem_ctrls.rdQLenPdf::6                    2602                       # What read queue length does an incoming req see
system.mem_ctrls.rdQLenPdf::7                    1150                       # What read queue length does an incoming req see
system.mem_ctrls.rdQLenPdf::8                       1                       # What read queue length does an incoming req see
system.mem_ctrls.rdQLenPdf::9                       0                       # What read queue length does an incoming req see
system.mem_ctrls.rdQLenPdf::10                      0                       # What read queue length does an incoming req see
system.mem_ctrls.rdQLenPdf::11                      0                       # What read queue length does an incoming req see
system.mem_ctrls.rdQLenPdf::12                      0                       # What read queue length does an incoming req see
system.mem_ctrls.rdQLenPdf::13                      0                       # What read queue length does an incoming req see
system.mem_ctrls.rdQLenPdf::14                      0                       # What read queue length does an incoming req see
system.mem_ctrls.rdQLenPdf::15                      0                       # What read queue length does an incoming req see
system.mem_ctrls.rdQLenPdf::16                      0                       # What read queue length does an incoming req see
system.mem_ctrls.rdQLenPdf::17                      0                       # What read queue length does an incoming req see
system.mem_ctrls.rdQLenPdf::18                      0                       # What read queue length does an incoming req see
system.mem_ctrls.rdQLenPdf::19                      0                       # What read queue length does an incoming req see
system.mem_ctrls.rdQLenPdf::20                      0                       # What read queue length does an incoming req see
system.mem_ctrls.rdQLenPdf::21                      0                       # What read queue length does an incoming req see
system.mem_ctrls.rdQLenPdf::22                      0                       # What read queue length does an incoming req see
system.mem_ctrls.rdQLenPdf::23                      0                       # What read queue length does an incoming req see
system.mem_ctrls.rdQLenPdf::24                      0                       # What read queue length does an incoming req see
system.mem_ctrls.rdQLenPdf::25                      0                       # What read queue length does an incoming req see
system.mem_ctrls.rdQLenPdf::26                      0                       # What read queue length does an incoming req see
system.mem_ctrls.rdQLenPdf::27                      0                       # What read queue length does an incoming req see
system.mem_ctrls.rdQLenPdf::28                      0                       # What read queue length does an incoming req see
system.mem_ctrls.rdQLenPdf::29                      0                       # What read queue length does an incoming req see
system.mem_ctrls.rdQLenPdf::30                      0                       # What read queue length does an incoming req see
system.mem_ctrls.rdQLenPdf::31                      0                       # What read queue length does an incoming req see
system.mem_ctrls.wrQLenPdf::0                       1                       # What write queue length does an incoming req see
system.mem_ctrls.wrQLenPdf::1                       1                       # What write queue length does an incoming req see
system.mem_ctrls.wrQLenPdf::2                       1                       # What write queue length does an incoming req see
system.mem_ctrls.wrQLenPdf::3                       1                       # What write queue length does an incoming req see
system.mem_ctrls.wrQLenPdf::4                       1                       # What write queue length does an incoming req see
system.mem_ctrls.wrQLenPdf::5                       1                       # What write queue length does an incoming req see
system.mem_ctrls.wrQLenPdf::6                       1                       # What write queue length does an incoming req see
system.mem_ctrls.wrQLenPdf::7                       1                       # What write queue length does an incoming req see
system.mem_ctrls.wrQLenPdf::8                       1                       # What write queue length does an incoming req see
system.mem_ctrls.wrQLenPdf::9                       1                       # What write queue length does an incoming req see
system.mem_ctrls.wrQLenPdf::10                      1                       # What write queue length does an incoming req see
system.mem_ctrls.wrQLenPdf::11                      1                       # What write queue length does an incoming req see
system.mem_ctrls.wrQLenPdf::12                      1                       # What write queue length does an incoming req see
system.mem_ctrls.wrQLenPdf::13                      1                       # What write queue length does an incoming req see
system.mem_ctrls.wrQLenPdf::14                      1                       # What write queue length does an incoming req see
system.mem_ctrls.wrQLenPdf::15                    577                       # What write queue length does an incoming req see
system.mem_ctrls.wrQLenPdf::16                    664                       # What write queue length does an incoming req see
system.mem_ctrls.wrQLenPdf::17                   3760                       # What write queue length does an incoming req see
system.mem_ctrls.wrQLenPdf::18                   5720                       # What write queue length does an incoming req see
system.mem_ctrls.wrQLenPdf::19                   7774                       # What write queue length does an incoming req see
system.mem_ctrls.wrQLenPdf::20                   9718                       # What write queue length does an incoming req see
system.mem_ctrls.wrQLenPdf::21                  10967                       # What write queue length does an incoming req see
system.mem_ctrls.wrQLenPdf::22                  11735                       # What write queue length does an incoming req see
system.mem_ctrls.wrQLenPdf::23                  12251                       # What write queue length does an incoming req see
system.mem_ctrls.wrQLenPdf::24                  12549                       # What write queue length does an incoming req see
system.mem_ctrls.wrQLenPdf::25                  12676                       # What write queue length does an incoming req see
system.mem_ctrls.wrQLenPdf::26                  12903                       # What write queue length does an incoming req see
system.mem_ctrls.wrQLenPdf::27                  12569                       # What write queue length does an incoming req see
system.mem_ctrls.wrQLenPdf::28                  12515                       # What write queue length does an incoming req see
system.mem_ctrls.wrQLenPdf::29                  12486                       # What write queue length does an incoming req see
system.mem_ctrls.wrQLenPdf::30                  12772                       # What write queue length does an incoming req see
system.mem_ctrls.wrQLenPdf::31                  13557                       # What write queue length does an incoming req see
system.mem_ctrls.wrQLenPdf::32                  13006                       # What write queue length does an incoming req see
system.mem_ctrls.wrQLenPdf::33                    517                       # What write queue length does an incoming req see
system.mem_ctrls.wrQLenPdf::34                    230                       # What write queue length does an incoming req see
system.mem_ctrls.wrQLenPdf::35                    111                       # What write queue length does an incoming req see
system.mem_ctrls.wrQLenPdf::36                     58                       # What write queue length does an incoming req see
system.mem_ctrls.wrQLenPdf::37                     36                       # What write queue length does an incoming req see
system.mem_ctrls.wrQLenPdf::38                     21                       # What write queue length does an incoming req see
system.mem_ctrls.wrQLenPdf::39                      6                       # What write queue length does an incoming req see
system.mem_ctrls.wrQLenPdf::40                      1                       # What write queue length does an incoming req see
system.mem_ctrls.wrQLenPdf::41                      0                       # What write queue length does an incoming req see
system.mem_ctrls.wrQLenPdf::42                      0                       # What write queue length does an incoming req see
system.mem_ctrls.wrQLenPdf::43                      0                       # What write queue length does an incoming req see
system.mem_ctrls.wrQLenPdf::44                      0                       # What write queue length does an incoming req see
system.mem_ctrls.wrQLenPdf::45                      0                       # What write queue length does an incoming req see
system.mem_ctrls.wrQLenPdf::46                      0                       # What write queue length does an incoming req see
system.mem_ctrls.wrQLenPdf::47                      0                       # What write queue length does an incoming req see
system.mem_ctrls.wrQLenPdf::48                      0                       # What write queue length does an incoming req see
system.mem_ctrls.wrQLenPdf::49                      0                       # What write queue length does an incoming req see
system.mem_ctrls.wrQLenPdf::50                      0                       # What write queue length does an incoming req see
system.mem_ctrls.wrQLenPdf::51                      0                       # What write queue length does an incoming req see
system.mem_ctrls.wrQLenPdf::52                      0                       # What write queue length does an incoming req see
system.mem_ctrls.wrQLenPdf::53                      0                       # What write queue length does an incoming req see
system.mem_ctrls.wrQLenPdf::54                      0                       # What write queue length does an incoming req see
system.mem_ctrls.wrQLenPdf::55                      0                       # What write queue length does an incoming req see
system.mem_ctrls.wrQLenPdf::56                      0                       # What write queue length does an incoming req see
system.mem_ctrls.wrQLenPdf::57                      0                       # What write queue length does an incoming req see
system.mem_ctrls.wrQLenPdf::58                      0                       # What write queue length does an incoming req see
system.mem_ctrls.wrQLenPdf::59                      0                       # What write queue length does an incoming req see
system.mem_ctrls.wrQLenPdf::60                      0                       # What write queue length does an incoming req see
system.mem_ctrls.wrQLenPdf::61                      0                       # What write queue length does an incoming req see
system.mem_ctrls.wrQLenPdf::62                      0                       # What write queue length does an incoming req see
system.mem_ctrls.wrQLenPdf::63                      0                       # What write queue length does an incoming req see
system.mem_ctrls.bytesPerActivate::samples       182433                       # Bytes accessed per row activation
system.mem_ctrls.bytesPerActivate::mean    221.557109                       # Bytes accessed per row activation
system.mem_ctrls.bytesPerActivate::gmean   171.461034                       # Bytes accessed per row activation
system.mem_ctrls.bytesPerActivate::stdev   167.708132                       # Bytes accessed per row activation
system.mem_ctrls.bytesPerActivate::0-127        53636     29.40%     29.40% # Bytes accessed per row activation
system.mem_ctrls.bytesPerActivate::128-255        33171     18.18%     47.58% # Bytes accessed per row activation
system.mem_ctrls.bytesPerActivate::256-383        77190     42.31%     89.89% # Bytes accessed per row activation
system.mem_ctrls.bytesPerActivate::384-511         7993      4.38%     94.28% # Bytes accessed per row activation
system.mem_ctrls.bytesPerActivate::512-639         4005      2.20%     96.47% # Bytes accessed per row activation
system.mem_ctrls.bytesPerActivate::640-767         2130      1.17%     97.64% # Bytes accessed per row activation
system.mem_ctrls.bytesPerActivate::768-895         1210      0.66%     98.30% # Bytes accessed per row activation
system.mem_ctrls.bytesPerActivate::896-1023          978      0.54%     98.84% # Bytes accessed per row activation
system.mem_ctrls.bytesPerActivate::1024-1151         2120      1.16%    100.00% # Bytes accessed per row activation
system.mem_ctrls.bytesPerActivate::total       182433                       # Bytes accessed per row activation
system.mem_ctrls.rdPerTurnAround::samples        11101                       # Reads before turning the bus around for writes
system.mem_ctrls.rdPerTurnAround::mean      40.752004                       # Reads before turning the bus around for writes
system.mem_ctrls.rdPerTurnAround::stdev   2167.877652                       # Reads before turning the bus around for writes
system.mem_ctrls.rdPerTurnAround::0-8191        11100     99.99%     99.99% # Reads before turning the bus around for writes
system.mem_ctrls.rdPerTurnAround::221184-229375            1      0.01%    100.00% # Reads before turning the bus around for writes
system.mem_ctrls.rdPerTurnAround::total         11101                       # Reads before turning the bus around for writes
system.mem_ctrls.wrPerTurnAround::samples        11101                       # Writes before turning the bus around for reads
system.mem_ctrls.wrPerTurnAround::mean      16.140258                       # Writes before turning the bus around for reads
system.mem_ctrls.wrPerTurnAround::gmean     16.130359                       # Writes before turning the bus around for reads
system.mem_ctrls.wrPerTurnAround::stdev      0.598694                       # Writes before turning the bus around for reads
system.mem_ctrls.wrPerTurnAround::16            10424     93.90%     93.90% # Writes before turning the bus around for reads
system.mem_ctrls.wrPerTurnAround::17               35      0.32%     94.22% # Writes before turning the bus around for reads
system.mem_ctrls.wrPerTurnAround::18              522      4.70%     98.92% # Writes before turning the bus around for reads
system.mem_ctrls.wrPerTurnAround::19               57      0.51%     99.43% # Writes before turning the bus around for reads
system.mem_ctrls.wrPerTurnAround::20               27      0.24%     99.68% # Writes before turning the bus around for reads
system.mem_ctrls.wrPerTurnAround::21               24      0.22%     99.89% # Writes before turning the bus around for reads
system.mem_ctrls.wrPerTurnAround::22                7      0.06%     99.95% # Writes before turning the bus around for reads
system.mem_ctrls.wrPerTurnAround::23                4      0.04%     99.99% # Writes before turning the bus around for reads
system.mem_ctrls.wrPerTurnAround::25                1      0.01%    100.00% # Writes before turning the bus around for reads
system.mem_ctrls.wrPerTurnAround::total         11101                       # Writes before turning the bus around for reads
system.mem_ctrls.totQLat                   9649515778                       # Total ticks spent queuing
system.mem_ctrls.totMemAccLat             18131884528                       # Total ticks spent from burst creation until serviced by the DRAM
system.mem_ctrls.totBusLat                 2261965000                       # Total ticks spent in databus transfers
system.mem_ctrls.avgQLat                     21329.94                       # Average queueing delay per DRAM burst
system.mem_ctrls.avgBusLat                    5000.00                       # Average bus latency per DRAM burst
system.mem_ctrls.avgMemAccLat                40079.94                       # Average memory access latency per DRAM burst
system.mem_ctrls.avgRdBW                        31.03                       # Average DRAM read bandwidth in MiByte/s
system.mem_ctrls.avgWrBW                        12.29                       # Average achieved write bandwidth in MiByte/s
system.mem_ctrls.avgRdBWSys                     31.03                       # Average system read bandwidth in MiByte/s
system.mem_ctrls.avgWrBWSys                     12.29                       # Average system write bandwidth in MiByte/s
system.mem_ctrls.peakBW                      12800.00                       # Theoretical peak bandwidth in MiByte/s
system.mem_ctrls.busUtil                         0.34                       # Data bus utilization in percentage
system.mem_ctrls.busUtilRead                     0.24                       # Data bus utilization in percentage for reads
system.mem_ctrls.busUtilWrite                    0.10                       # Data bus utilization in percentage for writes
system.mem_ctrls.avgRdQLen                       1.01                       # Average read queue length when enqueuing
system.mem_ctrls.avgWrQLen                       7.41                       # Average write queue length when enqueuing
system.mem_ctrls.readRowHits                   312173                       # Number of row buffer hits during reads
system.mem_ctrls.writeRowHits                  136952                       # Number of row buffer hits during writes
system.mem_ctrls.readRowHitRate                 69.00                       # Row buffer hit rate for reads
system.mem_ctrls.writeRowHitRate                76.43                       # Row buffer hit rate for writes
system.mem_ctrls.avgGap                    1477188.74                       # Average gap between requests
system.mem_ctrls.pageHitRate                    71.11                       # Row buffer hit rate, read and write combined
system.mem_ctrls_0.actEnergy                690787440                       # Energy for activate commands per rank (pJ)
system.mem_ctrls_0.preEnergy                376917750                       # Energy for precharge commands per rank (pJ)
system.mem_ctrls_0.readEnergy              1753884600                       # Energy for read commands per rank (pJ)
system.mem_ctrls_0.writeEnergy              567926640                       # Energy for write commands per rank (pJ)
system.mem_ctrls_0.refreshEnergy          60937693440                       # Energy for refresh commands per rank (pJ)
system.mem_ctrls_0.actBackEnergy         185248966590                       # Energy for active background per rank (pJ)
system.mem_ctrls_0.preBackEnergy         397288848750                       # Energy for precharge background per rank (pJ)
system.mem_ctrls_0.totalEnergy           646865025210                       # Total energy per rank (pJ)
system.mem_ctrls_0.averagePower            693.332217                       # Core power per rank (mW)
system.mem_ctrls_0.memoryStateTime::IDLE 659930791502                       # Time in different power states
system.mem_ctrls_0.memoryStateTime::REF   31154240000                       # Time in different power states
system.mem_ctrls_0.memoryStateTime::PRE_PDN            0                       # Time in different power states
system.mem_ctrls_0.memoryStateTime::ACT  241894885998                       # Time in different power states
system.mem_ctrls_0.memoryStateTime::ACT_PDN            0                       # Time in different power states
system.mem_ctrls_1.actEnergy                687990240                       # Energy for activate commands per rank (pJ)
system.mem_ctrls_1.preEnergy                375391500                       # Energy for precharge commands per rank (pJ)
system.mem_ctrls_1.readEnergy              1774242600                       # Energy for read commands per rank (pJ)
system.mem_ctrls_1.writeEnergy              592699680                       # Energy for write commands per rank (pJ)
system.mem_ctrls_1.refreshEnergy          60937693440                       # Energy for refresh commands per rank (pJ)
system.mem_ctrls_1.actBackEnergy         185252325885                       # Energy for active background per rank (pJ)
system.mem_ctrls_1.preBackEnergy         397285887750                       # Energy for precharge background per rank (pJ)
system.mem_ctrls_1.totalEnergy           646906231095                       # Total energy per rank (pJ)
system.mem_ctrls_1.averagePower            693.376401                       # Core power per rank (mW)
system.mem_ctrls_1.memoryStateTime::IDLE 659918878500                       # Time in different power states
system.mem_ctrls_1.memoryStateTime::REF   31154240000                       # Time in different power states
system.mem_ctrls_1.memoryStateTime::PRE_PDN            0                       # Time in different power states
system.mem_ctrls_1.memoryStateTime::ACT  241907075500                       # Time in different power states
system.mem_ctrls_1.memoryStateTime::ACT_PDN            0                       # Time in different power states
system.cpu_voltage_domain.voltage                   1                       # Voltage in Volts
system.cpu_clk_domain.clock                       500                       # Clock period in ticks
system.cpu0.apic_clk_domain.clock                8000                       # Clock period in ticks
system.cpu0.workload.num_syscalls                 595                       # Number of system calls
system.cpu0.numCycles                      1865973119                       # number of cpu cycles simulated
system.cpu0.numWorkItemsStarted                     0                       # number of work items this cpu started
system.cpu0.numWorkItemsCompleted                   0                       # number of work items this cpu completed
system.cpu0.committedInsts                  524282081                       # Number of instructions committed
system.cpu0.committedOps                   1465108477                       # Number of ops (including micro ops) committed
system.cpu0.num_int_alu_accesses           1384880663                       # Number of integer alu accesses
system.cpu0.num_fp_alu_accesses              37947212                       # Number of float alu accesses
system.cpu0.num_func_calls                   49105368                       # number of times a function call or return occured
system.cpu0.num_conditional_control_insts    111561659                       # number of instructions that are conditional controls
system.cpu0.num_int_insts                  1384880663                       # number of integer instructions
system.cpu0.num_fp_insts                     37947212                       # number of float instructions
system.cpu0.num_int_register_reads         2917449578                       # number of times the integer registers were read
system.cpu0.num_int_register_writes        1375831131                       # number of times the integer registers were written
system.cpu0.num_fp_register_reads            60768189                       # number of times the floating registers were read
system.cpu0.num_fp_register_writes           30252472                       # number of times the floating registers were written
system.cpu0.num_cc_register_reads          1158239772                       # number of times the CC registers were read
system.cpu0.num_cc_register_writes          436765000                       # number of times the CC registers were written
system.cpu0.num_mem_refs                    227083619                       # number of memory refs
system.cpu0.num_load_insts                  140540775                       # Number of load instructions
system.cpu0.num_store_insts                  86542844                       # Number of store instructions
system.cpu0.num_idle_cycles                  0.002000                       # Number of idle cycles
system.cpu0.num_busy_cycles              1865973118.998000                       # Number of busy cycles
system.cpu0.not_idle_fraction                1.000000                       # Percentage of non-idle cycles
system.cpu0.idle_fraction                    0.000000                       # Percentage of idle cycles
system.cpu0.Branches                        184966535                       # Number of branches fetched
system.cpu0.op_class::No_OpClass             24674789      1.68%      1.68% # Class of executed instruction
system.cpu0.op_class::IntAlu               1060485116     72.38%     74.07% # Class of executed instruction
system.cpu0.op_class::IntMult                     901      0.00%     74.07% # Class of executed instruction
system.cpu0.op_class::IntDiv                122612675      8.37%     82.44% # Class of executed instruction
system.cpu0.op_class::FloatAdd               30251377      2.06%     84.50% # Class of executed instruction
system.cpu0.op_class::FloatCmp                      0      0.00%     84.50% # Class of executed instruction
system.cpu0.op_class::FloatCvt                      0      0.00%     84.50% # Class of executed instruction
system.cpu0.op_class::FloatMult                     0      0.00%     84.50% # Class of executed instruction
system.cpu0.op_class::FloatDiv                      0      0.00%     84.50% # Class of executed instruction
system.cpu0.op_class::FloatSqrt                     0      0.00%     84.50% # Class of executed instruction
system.cpu0.op_class::SimdAdd                       0      0.00%     84.50% # Class of executed instruction
system.cpu0.op_class::SimdAddAcc                    0      0.00%     84.50% # Class of executed instruction
system.cpu0.op_class::SimdAlu                       0      0.00%     84.50% # Class of executed instruction
system.cpu0.op_class::SimdCmp                       0      0.00%     84.50% # Class of executed instruction
system.cpu0.op_class::SimdCvt                       0      0.00%     84.50% # Class of executed instruction
system.cpu0.op_class::SimdMisc                      0      0.00%     84.50% # Class of executed instruction
system.cpu0.op_class::SimdMult                      0      0.00%     84.50% # Class of executed instruction
system.cpu0.op_class::SimdMultAcc                   0      0.00%     84.50% # Class of executed instruction
system.cpu0.op_class::SimdShift                     0      0.00%     84.50% # Class of executed instruction
system.cpu0.op_class::SimdShiftAcc                  0      0.00%     84.50% # Class of executed instruction
system.cpu0.op_class::SimdSqrt                      0      0.00%     84.50% # Class of executed instruction
system.cpu0.op_class::SimdFloatAdd                  0      0.00%     84.50% # Class of executed instruction
system.cpu0.op_class::SimdFloatAlu                  0      0.00%     84.50% # Class of executed instruction
system.cpu0.op_class::SimdFloatCmp                  0      0.00%     84.50% # Class of executed instruction
system.cpu0.op_class::SimdFloatCvt                  0      0.00%     84.50% # Class of executed instruction
system.cpu0.op_class::SimdFloatDiv                  0      0.00%     84.50% # Class of executed instruction
system.cpu0.op_class::SimdFloatMisc                 0      0.00%     84.50% # Class of executed instruction
system.cpu0.op_class::SimdFloatMult                 0      0.00%     84.50% # Class of executed instruction
system.cpu0.op_class::SimdFloatMultAcc              0      0.00%     84.50% # Class of executed instruction
system.cpu0.op_class::SimdFloatSqrt                 0      0.00%     84.50% # Class of executed instruction
system.cpu0.op_class::MemRead               140540775      9.59%     94.09% # Class of executed instruction
system.cpu0.op_class::MemWrite               86542844      5.91%    100.00% # Class of executed instruction
system.cpu0.op_class::IprAccess                     0      0.00%    100.00% # Class of executed instruction
system.cpu0.op_class::InstPrefetch                  0      0.00%    100.00% # Class of executed instruction
system.cpu0.op_class::total                1465108477                       # Class of executed instruction
system.cpu1.apic_clk_domain.clock                8000                       # Clock period in ticks
system.cpu1.numCycles                      1848055977                       # number of cpu cycles simulated
system.cpu1.numWorkItemsStarted                     0                       # number of work items this cpu started
system.cpu1.numWorkItemsCompleted                   0                       # number of work items this cpu completed
system.cpu1.committedInsts                   16358093                       # Number of instructions committed
system.cpu1.committedOps                     32394952                       # Number of ops (including micro ops) committed
system.cpu1.num_int_alu_accesses             25251710                       # Number of integer alu accesses
system.cpu1.num_fp_alu_accesses              16259065                       # Number of float alu accesses
system.cpu1.num_func_calls                     123773                       # number of times a function call or return occured
system.cpu1.num_conditional_control_insts      1816988                       # number of instructions that are conditional controls
system.cpu1.num_int_insts                    25251710                       # number of integer instructions
system.cpu1.num_fp_insts                     16259065                       # number of float instructions
system.cpu1.num_int_register_reads           47527795                       # number of times the integer registers were read
system.cpu1.num_int_register_writes          14247143                       # number of times the integer registers were written
system.cpu1.num_fp_register_reads            23241698                       # number of times the floating registers were read
system.cpu1.num_fp_register_writes           13977691                       # number of times the floating registers were written
system.cpu1.num_cc_register_reads            10963896                       # number of times the CC registers were read
system.cpu1.num_cc_register_writes           10932579                       # number of times the CC registers were written
system.cpu1.num_mem_refs                      9426006                       # number of memory refs
system.cpu1.num_load_insts                    7082428                       # Number of load instructions
system.cpu1.num_store_insts                   2343578                       # Number of store instructions
system.cpu1.num_idle_cycles              1775881866.348599                       # Number of idle cycles
system.cpu1.num_busy_cycles              72174110.651401                       # Number of busy cycles
system.cpu1.not_idle_fraction                0.039054                       # Percentage of non-idle cycles
system.cpu1.idle_fraction                    0.960946                       # Percentage of idle cycles
system.cpu1.Branches                          2008835                       # Number of branches fetched
system.cpu1.op_class::No_OpClass                    8      0.00%      0.00% # Class of executed instruction
system.cpu1.op_class::IntAlu                 15643366     48.29%     48.29% # Class of executed instruction
system.cpu1.op_class::IntMult                  182268      0.56%     48.85% # Class of executed instruction
system.cpu1.op_class::IntDiv                       56      0.00%     48.85% # Class of executed instruction
system.cpu1.op_class::FloatAdd                7143248     22.05%     70.90% # Class of executed instruction
system.cpu1.op_class::FloatCmp                      0      0.00%     70.90% # Class of executed instruction
system.cpu1.op_class::FloatCvt                      0      0.00%     70.90% # Class of executed instruction
system.cpu1.op_class::FloatMult                     0      0.00%     70.90% # Class of executed instruction
system.cpu1.op_class::FloatDiv                      0      0.00%     70.90% # Class of executed instruction
system.cpu1.op_class::FloatSqrt                     0      0.00%     70.90% # Class of executed instruction
system.cpu1.op_class::SimdAdd                       0      0.00%     70.90% # Class of executed instruction
system.cpu1.op_class::SimdAddAcc                    0      0.00%     70.90% # Class of executed instruction
system.cpu1.op_class::SimdAlu                       0      0.00%     70.90% # Class of executed instruction
system.cpu1.op_class::SimdCmp                       0      0.00%     70.90% # Class of executed instruction
system.cpu1.op_class::SimdCvt                       0      0.00%     70.90% # Class of executed instruction
system.cpu1.op_class::SimdMisc                      0      0.00%     70.90% # Class of executed instruction
system.cpu1.op_class::SimdMult                      0      0.00%     70.90% # Class of executed instruction
system.cpu1.op_class::SimdMultAcc                   0      0.00%     70.90% # Class of executed instruction
system.cpu1.op_class::SimdShift                     0      0.00%     70.90% # Class of executed instruction
system.cpu1.op_class::SimdShiftAcc                  0      0.00%     70.90% # Class of executed instruction
system.cpu1.op_class::SimdSqrt                      0      0.00%     70.90% # Class of executed instruction
system.cpu1.op_class::SimdFloatAdd                  0      0.00%     70.90% # Class of executed instruction
system.cpu1.op_class::SimdFloatAlu                  0      0.00%     70.90% # Class of executed instruction
system.cpu1.op_class::SimdFloatCmp                  0      0.00%     70.90% # Class of executed instruction
system.cpu1.op_class::SimdFloatCvt                  0      0.00%     70.90% # Class of executed instruction
system.cpu1.op_class::SimdFloatDiv                  0      0.00%     70.90% # Class of executed instruction
system.cpu1.op_class::SimdFloatMisc                 0      0.00%     70.90% # Class of executed instruction
system.cpu1.op_class::SimdFloatMult                 0      0.00%     70.90% # Class of executed instruction
system.cpu1.op_class::SimdFloatMultAcc              0      0.00%     70.90% # Class of executed instruction
system.cpu1.op_class::SimdFloatSqrt                 0      0.00%     70.90% # Class of executed instruction
system.cpu1.op_class::MemRead                 7082428     21.86%     92.77% # Class of executed instruction
system.cpu1.op_class::MemWrite                2343578      7.23%    100.00% # Class of executed instruction
system.cpu1.op_class::IprAccess                     0      0.00%    100.00% # Class of executed instruction
system.cpu1.op_class::InstPrefetch                  0      0.00%    100.00% # Class of executed instruction
system.cpu1.op_class::total                  32394952                       # Class of executed instruction
system.cpu2.apic_clk_domain.clock                8000                       # Clock period in ticks
system.cpu2.numCycles                      1847810074                       # number of cpu cycles simulated
system.cpu2.numWorkItemsStarted                     0                       # number of work items this cpu started
system.cpu2.numWorkItemsCompleted                   0                       # number of work items this cpu completed
system.cpu2.committedInsts                   10277724                       # Number of instructions committed
system.cpu2.committedOps                     20348453                       # Number of ops (including micro ops) committed
system.cpu2.num_int_alu_accesses             15909237                       # Number of integer alu accesses
system.cpu2.num_fp_alu_accesses              10323215                       # Number of float alu accesses
system.cpu2.num_func_calls                      74293                       # number of times a function call or return occured
system.cpu2.num_conditional_control_insts      1134730                       # number of instructions that are conditional controls
system.cpu2.num_int_insts                    15909237                       # number of integer instructions
system.cpu2.num_fp_insts                     10323215                       # number of float instructions
system.cpu2.num_int_register_reads           30123742                       # number of times the integer registers were read
system.cpu2.num_int_register_writes           8846780                       # number of times the integer registers were written
system.cpu2.num_fp_register_reads            14638878                       # number of times the floating registers were read
system.cpu2.num_fp_register_writes            8730201                       # number of times the floating registers were written
system.cpu2.num_cc_register_reads             6845562                       # number of times the CC registers were read
system.cpu2.num_cc_register_writes            6826727                       # number of times the CC registers were written
system.cpu2.num_mem_refs                      6064064                       # number of memory refs
system.cpu2.num_load_insts                    4433688                       # Number of load instructions
system.cpu2.num_store_insts                   1630376                       # Number of store instructions
system.cpu2.num_idle_cycles              1799840175.015105                       # Number of idle cycles
system.cpu2.num_busy_cycles              47969898.984895                       # Number of busy cycles
system.cpu2.not_idle_fraction                0.025960                       # Percentage of non-idle cycles
system.cpu2.idle_fraction                    0.974040                       # Percentage of idle cycles
system.cpu2.Branches                          1249267                       # Number of branches fetched
system.cpu2.op_class::No_OpClass                    6      0.00%      0.00% # Class of executed instruction
system.cpu2.op_class::IntAlu                  9736975     47.85%     47.85% # Class of executed instruction
system.cpu2.op_class::IntMult                  108148      0.53%     48.38% # Class of executed instruction
system.cpu2.op_class::IntDiv                       42      0.00%     48.38% # Class of executed instruction
system.cpu2.op_class::FloatAdd                4439218     21.82%     70.20% # Class of executed instruction
system.cpu2.op_class::FloatCmp                      0      0.00%     70.20% # Class of executed instruction
system.cpu2.op_class::FloatCvt                      0      0.00%     70.20% # Class of executed instruction
system.cpu2.op_class::FloatMult                     0      0.00%     70.20% # Class of executed instruction
system.cpu2.op_class::FloatDiv                      0      0.00%     70.20% # Class of executed instruction
system.cpu2.op_class::FloatSqrt                     0      0.00%     70.20% # Class of executed instruction
system.cpu2.op_class::SimdAdd                       0      0.00%     70.20% # Class of executed instruction
system.cpu2.op_class::SimdAddAcc                    0      0.00%     70.20% # Class of executed instruction
system.cpu2.op_class::SimdAlu                       0      0.00%     70.20% # Class of executed instruction
system.cpu2.op_class::SimdCmp                       0      0.00%     70.20% # Class of executed instruction
system.cpu2.op_class::SimdCvt                       0      0.00%     70.20% # Class of executed instruction
system.cpu2.op_class::SimdMisc                      0      0.00%     70.20% # Class of executed instruction
system.cpu2.op_class::SimdMult                      0      0.00%     70.20% # Class of executed instruction
system.cpu2.op_class::SimdMultAcc                   0      0.00%     70.20% # Class of executed instruction
system.cpu2.op_class::SimdShift                     0      0.00%     70.20% # Class of executed instruction
system.cpu2.op_class::SimdShiftAcc                  0      0.00%     70.20% # Class of executed instruction
system.cpu2.op_class::SimdSqrt                      0      0.00%     70.20% # Class of executed instruction
system.cpu2.op_class::SimdFloatAdd                  0      0.00%     70.20% # Class of executed instruction
system.cpu2.op_class::SimdFloatAlu                  0      0.00%     70.20% # Class of executed instruction
system.cpu2.op_class::SimdFloatCmp                  0      0.00%     70.20% # Class of executed instruction
system.cpu2.op_class::SimdFloatCvt                  0      0.00%     70.20% # Class of executed instruction
system.cpu2.op_class::SimdFloatDiv                  0      0.00%     70.20% # Class of executed instruction
system.cpu2.op_class::SimdFloatMisc                 0      0.00%     70.20% # Class of executed instruction
system.cpu2.op_class::SimdFloatMult                 0      0.00%     70.20% # Class of executed instruction
system.cpu2.op_class::SimdFloatMultAcc              0      0.00%     70.20% # Class of executed instruction
system.cpu2.op_class::SimdFloatSqrt                 0      0.00%     70.20% # Class of executed instruction
system.cpu2.op_class::MemRead                 4433688     21.79%     91.99% # Class of executed instruction
system.cpu2.op_class::MemWrite                1630376      8.01%    100.00% # Class of executed instruction
system.cpu2.op_class::IprAccess                     0      0.00%    100.00% # Class of executed instruction
system.cpu2.op_class::InstPrefetch                  0      0.00%    100.00% # Class of executed instruction
system.cpu2.op_class::total                  20348453                       # Class of executed instruction
system.cpu3.apic_clk_domain.clock                8000                       # Clock period in ticks
system.cpu3.numCycles                      1846736296                       # number of cpu cycles simulated
system.cpu3.numWorkItemsStarted                     0                       # number of work items this cpu started
system.cpu3.numWorkItemsCompleted                   0                       # number of work items this cpu completed
system.cpu3.committedInsts                   10277724                       # Number of instructions committed
system.cpu3.committedOps                     20348453                       # Number of ops (including micro ops) committed
system.cpu3.num_int_alu_accesses             15909237                       # Number of integer alu accesses
system.cpu3.num_fp_alu_accesses              10323215                       # Number of float alu accesses
system.cpu3.num_func_calls                      74293                       # number of times a function call or return occured
system.cpu3.num_conditional_control_insts      1134730                       # number of instructions that are conditional controls
system.cpu3.num_int_insts                    15909237                       # number of integer instructions
system.cpu3.num_fp_insts                     10323215                       # number of float instructions
system.cpu3.num_int_register_reads           30123742                       # number of times the integer registers were read
system.cpu3.num_int_register_writes           8846780                       # number of times the integer registers were written
system.cpu3.num_fp_register_reads            14638878                       # number of times the floating registers were read
system.cpu3.num_fp_register_writes            8730201                       # number of times the floating registers were written
system.cpu3.num_cc_register_reads             6845562                       # number of times the CC registers were read
system.cpu3.num_cc_register_writes            6826727                       # number of times the CC registers were written
system.cpu3.num_mem_refs                      6064064                       # number of memory refs
system.cpu3.num_load_insts                    4433688                       # Number of load instructions
system.cpu3.num_store_insts                   1630376                       # Number of store instructions
system.cpu3.num_idle_cycles              1799859072.075366                       # Number of idle cycles
system.cpu3.num_busy_cycles              46877223.924634                       # Number of busy cycles
system.cpu3.not_idle_fraction                0.025384                       # Percentage of non-idle cycles
system.cpu3.idle_fraction                    0.974616                       # Percentage of idle cycles
system.cpu3.Branches                          1249267                       # Number of branches fetched
system.cpu3.op_class::No_OpClass                    6      0.00%      0.00% # Class of executed instruction
system.cpu3.op_class::IntAlu                  9736975     47.85%     47.85% # Class of executed instruction
system.cpu3.op_class::IntMult                  108148      0.53%     48.38% # Class of executed instruction
system.cpu3.op_class::IntDiv                       42      0.00%     48.38% # Class of executed instruction
system.cpu3.op_class::FloatAdd                4439218     21.82%     70.20% # Class of executed instruction
system.cpu3.op_class::FloatCmp                      0      0.00%     70.20% # Class of executed instruction
system.cpu3.op_class::FloatCvt                      0      0.00%     70.20% # Class of executed instruction
system.cpu3.op_class::FloatMult                     0      0.00%     70.20% # Class of executed instruction
system.cpu3.op_class::FloatDiv                      0      0.00%     70.20% # Class of executed instruction
system.cpu3.op_class::FloatSqrt                     0      0.00%     70.20% # Class of executed instruction
system.cpu3.op_class::SimdAdd                       0      0.00%     70.20% # Class of executed instruction
system.cpu3.op_class::SimdAddAcc                    0      0.00%     70.20% # Class of executed instruction
system.cpu3.op_class::SimdAlu                       0      0.00%     70.20% # Class of executed instruction
system.cpu3.op_class::SimdCmp                       0      0.00%     70.20% # Class of executed instruction
system.cpu3.op_class::SimdCvt                       0      0.00%     70.20% # Class of executed instruction
system.cpu3.op_class::SimdMisc                      0      0.00%     70.20% # Class of executed instruction
system.cpu3.op_class::SimdMult                      0      0.00%     70.20% # Class of executed instruction
system.cpu3.op_class::SimdMultAcc                   0      0.00%     70.20% # Class of executed instruction
system.cpu3.op_class::SimdShift                     0      0.00%     70.20% # Class of executed instruction
system.cpu3.op_class::SimdShiftAcc                  0      0.00%     70.20% # Class of executed instruction
system.cpu3.op_class::SimdSqrt                      0      0.00%     70.20% # Class of executed instruction
system.cpu3.op_class::SimdFloatAdd                  0      0.00%     70.20% # Class of executed instruction
system.cpu3.op_class::SimdFloatAlu                  0      0.00%     70.20% # Class of executed instruction
system.cpu3.op_class::SimdFloatCmp                  0      0.00%     70.20% # Class of executed instruction
system.cpu3.op_class::SimdFloatCvt                  0      0.00%     70.20% # Class of executed instruction
system.cpu3.op_class::SimdFloatDiv                  0      0.00%     70.20% # Class of executed instruction
system.cpu3.op_class::SimdFloatMisc                 0      0.00%     70.20% # Class of executed instruction
system.cpu3.op_class::SimdFloatMult                 0      0.00%     70.20% # Class of executed instruction
system.cpu3.op_class::SimdFloatMultAcc              0      0.00%     70.20% # Class of executed instruction
system.cpu3.op_class::SimdFloatSqrt                 0      0.00%     70.20% # Class of executed instruction
system.cpu3.op_class::MemRead                 4433688     21.79%     91.99% # Class of executed instruction
system.cpu3.op_class::MemWrite                1630376      8.01%    100.00% # Class of executed instruction
system.cpu3.op_class::IprAccess                     0      0.00%    100.00% # Class of executed instruction
system.cpu3.op_class::InstPrefetch                  0      0.00%    100.00% # Class of executed instruction
system.cpu3.op_class::total                  20348453                       # Class of executed instruction
system.cpu4.apic_clk_domain.clock                8000                       # Clock period in ticks
system.cpu4.numCycles                      1847945220                       # number of cpu cycles simulated
system.cpu4.numWorkItemsStarted                     0                       # number of work items this cpu started
system.cpu4.numWorkItemsCompleted                   0                       # number of work items this cpu completed
system.cpu4.committedInsts                   10277724                       # Number of instructions committed
system.cpu4.committedOps                     20348453                       # Number of ops (including micro ops) committed
system.cpu4.num_int_alu_accesses             15909237                       # Number of integer alu accesses
system.cpu4.num_fp_alu_accesses              10323215                       # Number of float alu accesses
system.cpu4.num_func_calls                      74293                       # number of times a function call or return occured
system.cpu4.num_conditional_control_insts      1134730                       # number of instructions that are conditional controls
system.cpu4.num_int_insts                    15909237                       # number of integer instructions
system.cpu4.num_fp_insts                     10323215                       # number of float instructions
system.cpu4.num_int_register_reads           30123742                       # number of times the integer registers were read
system.cpu4.num_int_register_writes           8846780                       # number of times the integer registers were written
system.cpu4.num_fp_register_reads            14638878                       # number of times the floating registers were read
system.cpu4.num_fp_register_writes            8730201                       # number of times the floating registers were written
system.cpu4.num_cc_register_reads             6845562                       # number of times the CC registers were read
system.cpu4.num_cc_register_writes            6826727                       # number of times the CC registers were written
system.cpu4.num_mem_refs                      6064064                       # number of memory refs
system.cpu4.num_load_insts                    4433688                       # Number of load instructions
system.cpu4.num_store_insts                   1630376                       # Number of store instructions
system.cpu4.num_idle_cycles              1799737840.122454                       # Number of idle cycles
system.cpu4.num_busy_cycles              48207379.877546                       # Number of busy cycles
system.cpu4.not_idle_fraction                0.026087                       # Percentage of non-idle cycles
system.cpu4.idle_fraction                    0.973913                       # Percentage of idle cycles
system.cpu4.Branches                          1249267                       # Number of branches fetched
system.cpu4.op_class::No_OpClass                    6      0.00%      0.00% # Class of executed instruction
system.cpu4.op_class::IntAlu                  9736975     47.85%     47.85% # Class of executed instruction
system.cpu4.op_class::IntMult                  108148      0.53%     48.38% # Class of executed instruction
system.cpu4.op_class::IntDiv                       42      0.00%     48.38% # Class of executed instruction
system.cpu4.op_class::FloatAdd                4439218     21.82%     70.20% # Class of executed instruction
system.cpu4.op_class::FloatCmp                      0      0.00%     70.20% # Class of executed instruction
system.cpu4.op_class::FloatCvt                      0      0.00%     70.20% # Class of executed instruction
system.cpu4.op_class::FloatMult                     0      0.00%     70.20% # Class of executed instruction
system.cpu4.op_class::FloatDiv                      0      0.00%     70.20% # Class of executed instruction
system.cpu4.op_class::FloatSqrt                     0      0.00%     70.20% # Class of executed instruction
system.cpu4.op_class::SimdAdd                       0      0.00%     70.20% # Class of executed instruction
system.cpu4.op_class::SimdAddAcc                    0      0.00%     70.20% # Class of executed instruction
system.cpu4.op_class::SimdAlu                       0      0.00%     70.20% # Class of executed instruction
system.cpu4.op_class::SimdCmp                       0      0.00%     70.20% # Class of executed instruction
system.cpu4.op_class::SimdCvt                       0      0.00%     70.20% # Class of executed instruction
system.cpu4.op_class::SimdMisc                      0      0.00%     70.20% # Class of executed instruction
system.cpu4.op_class::SimdMult                      0      0.00%     70.20% # Class of executed instruction
system.cpu4.op_class::SimdMultAcc                   0      0.00%     70.20% # Class of executed instruction
system.cpu4.op_class::SimdShift                     0      0.00%     70.20% # Class of executed instruction
system.cpu4.op_class::SimdShiftAcc                  0      0.00%     70.20% # Class of executed instruction
system.cpu4.op_class::SimdSqrt                      0      0.00%     70.20% # Class of executed instruction
system.cpu4.op_class::SimdFloatAdd                  0      0.00%     70.20% # Class of executed instruction
system.cpu4.op_class::SimdFloatAlu                  0      0.00%     70.20% # Class of executed instruction
system.cpu4.op_class::SimdFloatCmp                  0      0.00%     70.20% # Class of executed instruction
system.cpu4.op_class::SimdFloatCvt                  0      0.00%     70.20% # Class of executed instruction
system.cpu4.op_class::SimdFloatDiv                  0      0.00%     70.20% # Class of executed instruction
system.cpu4.op_class::SimdFloatMisc                 0      0.00%     70.20% # Class of executed instruction
system.cpu4.op_class::SimdFloatMult                 0      0.00%     70.20% # Class of executed instruction
system.cpu4.op_class::SimdFloatMultAcc              0      0.00%     70.20% # Class of executed instruction
system.cpu4.op_class::SimdFloatSqrt                 0      0.00%     70.20% # Class of executed instruction
system.cpu4.op_class::MemRead                 4433688     21.79%     91.99% # Class of executed instruction
system.cpu4.op_class::MemWrite                1630376      8.01%    100.00% # Class of executed instruction
system.cpu4.op_class::IprAccess                     0      0.00%    100.00% # Class of executed instruction
system.cpu4.op_class::InstPrefetch                  0      0.00%    100.00% # Class of executed instruction
system.cpu4.op_class::total                  20348453                       # Class of executed instruction
system.cpu5.apic_clk_domain.clock                8000                       # Clock period in ticks
system.cpu5.numCycles                      1847692457                       # number of cpu cycles simulated
system.cpu5.numWorkItemsStarted                     0                       # number of work items this cpu started
system.cpu5.numWorkItemsCompleted                   0                       # number of work items this cpu completed
system.cpu5.committedInsts                   10277724                       # Number of instructions committed
system.cpu5.committedOps                     20348453                       # Number of ops (including micro ops) committed
system.cpu5.num_int_alu_accesses             15909237                       # Number of integer alu accesses
system.cpu5.num_fp_alu_accesses              10323215                       # Number of float alu accesses
system.cpu5.num_func_calls                      74293                       # number of times a function call or return occured
system.cpu5.num_conditional_control_insts      1134730                       # number of instructions that are conditional controls
system.cpu5.num_int_insts                    15909237                       # number of integer instructions
system.cpu5.num_fp_insts                     10323215                       # number of float instructions
system.cpu5.num_int_register_reads           30123742                       # number of times the integer registers were read
system.cpu5.num_int_register_writes           8846780                       # number of times the integer registers were written
system.cpu5.num_fp_register_reads            14638878                       # number of times the floating registers were read
system.cpu5.num_fp_register_writes            8730201                       # number of times the floating registers were written
system.cpu5.num_cc_register_reads             6845562                       # number of times the CC registers were read
system.cpu5.num_cc_register_writes            6826727                       # number of times the CC registers were written
system.cpu5.num_mem_refs                      6064064                       # number of memory refs
system.cpu5.num_load_insts                    4433688                       # Number of load instructions
system.cpu5.num_store_insts                   1630376                       # Number of store instructions
system.cpu5.num_idle_cycles              1799809534.087554                       # Number of idle cycles
system.cpu5.num_busy_cycles              47882922.912446                       # Number of busy cycles
system.cpu5.not_idle_fraction                0.025915                       # Percentage of non-idle cycles
system.cpu5.idle_fraction                    0.974085                       # Percentage of idle cycles
system.cpu5.Branches                          1249267                       # Number of branches fetched
system.cpu5.op_class::No_OpClass                    6      0.00%      0.00% # Class of executed instruction
system.cpu5.op_class::IntAlu                  9736975     47.85%     47.85% # Class of executed instruction
system.cpu5.op_class::IntMult                  108148      0.53%     48.38% # Class of executed instruction
system.cpu5.op_class::IntDiv                       42      0.00%     48.38% # Class of executed instruction
system.cpu5.op_class::FloatAdd                4439218     21.82%     70.20% # Class of executed instruction
system.cpu5.op_class::FloatCmp                      0      0.00%     70.20% # Class of executed instruction
system.cpu5.op_class::FloatCvt                      0      0.00%     70.20% # Class of executed instruction
system.cpu5.op_class::FloatMult                     0      0.00%     70.20% # Class of executed instruction
system.cpu5.op_class::FloatDiv                      0      0.00%     70.20% # Class of executed instruction
system.cpu5.op_class::FloatSqrt                     0      0.00%     70.20% # Class of executed instruction
system.cpu5.op_class::SimdAdd                       0      0.00%     70.20% # Class of executed instruction
system.cpu5.op_class::SimdAddAcc                    0      0.00%     70.20% # Class of executed instruction
system.cpu5.op_class::SimdAlu                       0      0.00%     70.20% # Class of executed instruction
system.cpu5.op_class::SimdCmp                       0      0.00%     70.20% # Class of executed instruction
system.cpu5.op_class::SimdCvt                       0      0.00%     70.20% # Class of executed instruction
system.cpu5.op_class::SimdMisc                      0      0.00%     70.20% # Class of executed instruction
system.cpu5.op_class::SimdMult                      0      0.00%     70.20% # Class of executed instruction
system.cpu5.op_class::SimdMultAcc                   0      0.00%     70.20% # Class of executed instruction
system.cpu5.op_class::SimdShift                     0      0.00%     70.20% # Class of executed instruction
system.cpu5.op_class::SimdShiftAcc                  0      0.00%     70.20% # Class of executed instruction
system.cpu5.op_class::SimdSqrt                      0      0.00%     70.20% # Class of executed instruction
system.cpu5.op_class::SimdFloatAdd                  0      0.00%     70.20% # Class of executed instruction
system.cpu5.op_class::SimdFloatAlu                  0      0.00%     70.20% # Class of executed instruction
system.cpu5.op_class::SimdFloatCmp                  0      0.00%     70.20% # Class of executed instruction
system.cpu5.op_class::SimdFloatCvt                  0      0.00%     70.20% # Class of executed instruction
system.cpu5.op_class::SimdFloatDiv                  0      0.00%     70.20% # Class of executed instruction
system.cpu5.op_class::SimdFloatMisc                 0      0.00%     70.20% # Class of executed instruction
system.cpu5.op_class::SimdFloatMult                 0      0.00%     70.20% # Class of executed instruction
system.cpu5.op_class::SimdFloatMultAcc              0      0.00%     70.20% # Class of executed instruction
system.cpu5.op_class::SimdFloatSqrt                 0      0.00%     70.20% # Class of executed instruction
system.cpu5.op_class::MemRead                 4433688     21.79%     91.99% # Class of executed instruction
system.cpu5.op_class::MemWrite                1630376      8.01%    100.00% # Class of executed instruction
system.cpu5.op_class::IprAccess                     0      0.00%    100.00% # Class of executed instruction
system.cpu5.op_class::InstPrefetch                  0      0.00%    100.00% # Class of executed instruction
system.cpu5.op_class::total                  20348453                       # Class of executed instruction
system.cpu6.apic_clk_domain.clock                8000                       # Clock period in ticks
system.cpu6.numCycles                      1847268573                       # number of cpu cycles simulated
system.cpu6.numWorkItemsStarted                     0                       # number of work items this cpu started
system.cpu6.numWorkItemsCompleted                   0                       # number of work items this cpu completed
system.cpu6.committedInsts                   10277724                       # Number of instructions committed
system.cpu6.committedOps                     20348453                       # Number of ops (including micro ops) committed
system.cpu6.num_int_alu_accesses             15909237                       # Number of integer alu accesses
system.cpu6.num_fp_alu_accesses              10323215                       # Number of float alu accesses
system.cpu6.num_func_calls                      74293                       # number of times a function call or return occured
system.cpu6.num_conditional_control_insts      1134730                       # number of instructions that are conditional controls
system.cpu6.num_int_insts                    15909237                       # number of integer instructions
system.cpu6.num_fp_insts                     10323215                       # number of float instructions
system.cpu6.num_int_register_reads           30123742                       # number of times the integer registers were read
system.cpu6.num_int_register_writes           8846780                       # number of times the integer registers were written
system.cpu6.num_fp_register_reads            14638878                       # number of times the floating registers were read
system.cpu6.num_fp_register_writes            8730201                       # number of times the floating registers were written
system.cpu6.num_cc_register_reads             6845562                       # number of times the CC registers were read
system.cpu6.num_cc_register_writes            6826727                       # number of times the CC registers were written
system.cpu6.num_mem_refs                      6064064                       # number of memory refs
system.cpu6.num_load_insts                    4433688                       # Number of load instructions
system.cpu6.num_store_insts                   1630376                       # Number of store instructions
system.cpu6.num_idle_cycles              1799758475.216937                       # Number of idle cycles
system.cpu6.num_busy_cycles              47510097.783063                       # Number of busy cycles
system.cpu6.not_idle_fraction                0.025719                       # Percentage of non-idle cycles
system.cpu6.idle_fraction                    0.974281                       # Percentage of idle cycles
system.cpu6.Branches                          1249267                       # Number of branches fetched
system.cpu6.op_class::No_OpClass                    6      0.00%      0.00% # Class of executed instruction
system.cpu6.op_class::IntAlu                  9736975     47.85%     47.85% # Class of executed instruction
system.cpu6.op_class::IntMult                  108148      0.53%     48.38% # Class of executed instruction
system.cpu6.op_class::IntDiv                       42      0.00%     48.38% # Class of executed instruction
system.cpu6.op_class::FloatAdd                4439218     21.82%     70.20% # Class of executed instruction
system.cpu6.op_class::FloatCmp                      0      0.00%     70.20% # Class of executed instruction
system.cpu6.op_class::FloatCvt                      0      0.00%     70.20% # Class of executed instruction
system.cpu6.op_class::FloatMult                     0      0.00%     70.20% # Class of executed instruction
system.cpu6.op_class::FloatDiv                      0      0.00%     70.20% # Class of executed instruction
system.cpu6.op_class::FloatSqrt                     0      0.00%     70.20% # Class of executed instruction
system.cpu6.op_class::SimdAdd                       0      0.00%     70.20% # Class of executed instruction
system.cpu6.op_class::SimdAddAcc                    0      0.00%     70.20% # Class of executed instruction
system.cpu6.op_class::SimdAlu                       0      0.00%     70.20% # Class of executed instruction
system.cpu6.op_class::SimdCmp                       0      0.00%     70.20% # Class of executed instruction
system.cpu6.op_class::SimdCvt                       0      0.00%     70.20% # Class of executed instruction
system.cpu6.op_class::SimdMisc                      0      0.00%     70.20% # Class of executed instruction
system.cpu6.op_class::SimdMult                      0      0.00%     70.20% # Class of executed instruction
system.cpu6.op_class::SimdMultAcc                   0      0.00%     70.20% # Class of executed instruction
system.cpu6.op_class::SimdShift                     0      0.00%     70.20% # Class of executed instruction
system.cpu6.op_class::SimdShiftAcc                  0      0.00%     70.20% # Class of executed instruction
system.cpu6.op_class::SimdSqrt                      0      0.00%     70.20% # Class of executed instruction
system.cpu6.op_class::SimdFloatAdd                  0      0.00%     70.20% # Class of executed instruction
system.cpu6.op_class::SimdFloatAlu                  0      0.00%     70.20% # Class of executed instruction
system.cpu6.op_class::SimdFloatCmp                  0      0.00%     70.20% # Class of executed instruction
system.cpu6.op_class::SimdFloatCvt                  0      0.00%     70.20% # Class of executed instruction
system.cpu6.op_class::SimdFloatDiv                  0      0.00%     70.20% # Class of executed instruction
system.cpu6.op_class::SimdFloatMisc                 0      0.00%     70.20% # Class of executed instruction
system.cpu6.op_class::SimdFloatMult                 0      0.00%     70.20% # Class of executed instruction
system.cpu6.op_class::SimdFloatMultAcc              0      0.00%     70.20% # Class of executed instruction
system.cpu6.op_class::SimdFloatSqrt                 0      0.00%     70.20% # Class of executed instruction
system.cpu6.op_class::MemRead                 4433688     21.79%     91.99% # Class of executed instruction
system.cpu6.op_class::MemWrite                1630376      8.01%    100.00% # Class of executed instruction
system.cpu6.op_class::IprAccess                     0      0.00%    100.00% # Class of executed instruction
system.cpu6.op_class::InstPrefetch                  0      0.00%    100.00% # Class of executed instruction
system.cpu6.op_class::total                  20348453                       # Class of executed instruction
system.cpu7.apic_clk_domain.clock                8000                       # Clock period in ticks
system.cpu7.numCycles                      1846162066                       # number of cpu cycles simulated
system.cpu7.numWorkItemsStarted                     0                       # number of work items this cpu started
system.cpu7.numWorkItemsCompleted                   0                       # number of work items this cpu completed
system.cpu7.committedInsts                   10277724                       # Number of instructions committed
[...]
system.ruby.L1Cache_Controller.M.WriteBack |      498939     25.31%     25.31% |      266254     13.51%     38.82% |      166947      8.47%     47.29% |      162814      8.26%     55.55% |      171977      8.72%     64.28% |      167510      8.50%     72.77% |      155917      7.91%     80.68% |      166238      8.43%     89.12% |      214506     10.88%    100.00%
system.ruby.L1Cache_Controller.M.WriteBack::total      1971102                      
system.ruby.L1Cache_Controller.M.L0_Invalidate_Own |        7660     74.18%     74.18% |         614      5.95%     80.13% |         298      2.89%     83.01% |         308      2.98%     86.00% |         376      3.64%     89.64% |         305      2.95%     92.59% |         197      1.91%     94.50% |         283      2.74%     97.24% |         285      2.76%    100.00%
system.ruby.L1Cache_Controller.M.L0_Invalidate_Own::total        10326                      
system.ruby.L1Cache_Controller.M.L0_Invalidate_Else |         893      9.83%      9.83% |         722      7.95%     17.77% |        1587     17.47%     35.24% |         606      6.67%     41.91% |         687      7.56%     49.47% |        1228     13.52%     62.99% |        1651     18.17%     81.16% |        1355     14.91%     96.07% |         357      3.93%    100.00%
system.ruby.L1Cache_Controller.M.L0_Invalidate_Else::total         9086                      
system.ruby.L1Cache_Controller.MM.Load   |        9890      0.77%      0.77% |      237215     18.57%     19.34% |      138662     10.85%     30.19% |      142367     11.14%     41.33% |      143647     11.24%     52.58% |      139618     10.93%     63.50% |      135927     10.64%     74.14% |      141792     11.10%     85.24% |      188587     14.76%    100.00%
system.ruby.L1Cache_Controller.MM.Load::total      1277705                      
system.ruby.L1Cache_Controller.MM.Store  |        7270     99.19%     99.19% |          21      0.29%     99.48% |           4      0.05%     99.54% |           6      0.08%     99.62% |           7      0.10%     99.71% |           5      0.07%     99.78% |           5      0.07%     99.85% |           4      0.05%     99.90% |           7      0.10%    100.00%
system.ruby.L1Cache_Controller.MM.Store::total         7329                      
system.ruby.L1Cache_Controller.MM.Inv    |        1272      7.19%      7.19% |        1755      9.92%     17.10% |        2594     14.66%     31.76% |        1685      9.52%     41.28% |        2232     12.61%     53.89% |        2315     13.08%     66.97% |        1924     10.87%     77.84% |        2410     13.62%     91.46% |        1511      8.54%    100.00%
system.ruby.L1Cache_Controller.MM.Inv::total        17698                      
system.ruby.L1Cache_Controller.MM.L1_Replacement |      483864     43.34%     43.34% |       93960      8.42%     51.76% |       60738      5.44%     57.20% |       70977      6.36%     63.56% |       59802      5.36%     68.91% |       61705      5.53%     74.44% |       61443      5.50%     79.94% |       70715      6.33%     86.28% |      153192     13.72%    100.00%
system.ruby.L1Cache_Controller.MM.L1_Replacement::total      1116396                      
system.ruby.L1Cache_Controller.MM.Fwd_GETX |           8      0.47%      0.47% |         132      7.75%      8.22% |         438     25.70%     33.92% |          10      0.59%     34.51% |          12      0.70%     35.21% |         355     20.83%     56.04% |         237     13.91%     69.95% |         508     29.81%     99.77% |           4      0.23%    100.00%
system.ruby.L1Cache_Controller.MM.Fwd_GETX::total         1704                      
system.ruby.L1Cache_Controller.MM.Fwd_GETS |        6636      3.23%      3.23% |       18437      8.98%     12.21% |       28943     14.10%     26.31% |       20580     10.02%     36.33% |       28604     13.93%     50.27% |       28444     13.85%     64.12% |       28330     13.80%     77.92% |       20800     10.13%     88.05% |       24531     11.95%    100.00%
system.ruby.L1Cache_Controller.MM.Fwd_GETS::total       205305                      
system.ruby.L1Cache_Controller.IS.Data_Exclusive |        5670      0.83%      0.83% |       97152     14.21%     15.04% |       66807      9.77%     24.82% |       75773     11.08%     35.90% |       66430      9.72%     45.62% |       68136      9.97%     55.59% |       73869     10.81%     66.39% |       71342     10.44%     76.83% |      158393     23.17%    100.00%
system.ruby.L1Cache_Controller.IS.Data_Exclusive::total       683572                      
system.ruby.L1Cache_Controller.IS.DataS_fromL1 |         137      0.06%      0.06% |       32485     15.16%     15.22% |       32901     15.35%     30.58% |       27206     12.70%     43.27% |       28774     13.43%     56.70% |       32902     15.35%     72.06% |       21364      9.97%     82.03% |       28976     13.52%     95.55% |        9536      4.45%    100.00%
system.ruby.L1Cache_Controller.IS.DataS_fromL1::total       214281                      
system.ruby.L1Cache_Controller.IS.Data_all_Acks |          12      0.00%      0.00% |       86277     17.64%     17.65% |       53697     10.98%     28.63% |       51215     10.47%     39.10% |       57543     11.77%     50.87% |       53508     10.94%     61.81% |       57710     11.80%     73.61% |       53973     11.04%     84.65% |       75045     15.35%    100.00%
system.ruby.L1Cache_Controller.IS.Data_all_Acks::total       488980                      
system.ruby.L1Cache_Controller.IM.Data   |           0      0.00%      0.00% |           3     13.04%     13.04% |           4     17.39%     30.43% |           2      8.70%     39.13% |           2      8.70%     47.83% |           2      8.70%     56.52% |           3     13.04%     69.57% |           4     17.39%     86.96% |           3     13.04%    100.00%
system.ruby.L1Cache_Controller.IM.Data::total           23                      
system.ruby.L1Cache_Controller.IM.Data_all_Acks |      490453     98.22%     98.22% |        1649      0.33%     98.55% |        1166      0.23%     98.78% |         816      0.16%     98.94% |         818      0.16%     99.11% |        1229      0.25%     99.35% |        1258      0.25%     99.60% |        1151      0.23%     99.83% |         824      0.17%    100.00%
system.ruby.L1Cache_Controller.IM.Data_all_Acks::total       499364                      
system.ruby.L1Cache_Controller.SM.Inv    |           0      0.00%      0.00% |          64      4.00%      4.00% |         348     21.76%     25.77% |           0      0.00%     25.77% |           4      0.25%     26.02% |         413     25.83%     51.84% |         438     27.39%     79.24% |         332     20.76%    100.00% |           0      0.00%    100.00%
system.ruby.L1Cache_Controller.SM.Inv::total         1599                      
system.ruby.L1Cache_Controller.SM.Ack    |         130      0.04%      0.04% |       28709      8.13%      8.17% |       29008      8.21%     16.38% |       22516      6.38%     22.76% |       28592      8.10%     30.85% |       28198      7.99%     38.84% |       20587      5.83%     44.67% |       24936      7.06%     51.73% |      170456     48.27%    100.00%
system.ruby.L1Cache_Controller.SM.Ack::total       353132                      
system.ruby.L1Cache_Controller.SM.Ack_all |          90      0.04%      0.04% |       28711     13.89%     13.94% |       29010     14.04%     27.97% |       20544      9.94%     37.92% |       28593     13.84%     51.75% |       28200     13.65%     65.40% |       20589      9.96%     75.36% |       24937     12.07%     87.43% |       25984     12.57%    100.00%
system.ruby.L1Cache_Controller.SM.Ack_all::total       206658                      
system.ruby.L1Cache_Controller.M_I.Fwd_GETS |           0      0.00%      0.00% |           0      0.00%      0.00% |           0      0.00%      0.00% |           0      0.00%      0.00% |           0      0.00%      0.00% |           0      0.00%      0.00% |           0      0.00%      0.00% |           0      0.00%      0.00% |           6    100.00%    100.00%
system.ruby.L1Cache_Controller.M_I.Fwd_GETS::total            6                      
system.ruby.L1Cache_Controller.M_I.WB_Ack |      487056     43.35%     43.35% |       94802      8.44%     51.78% |       61236      5.45%     57.23% |       71497      6.36%     63.60% |       60343      5.37%     68.97% |       62127      5.53%     74.50% |       61859      5.51%     80.00% |       71098      6.33%     86.33% |      153612     13.67%    100.00%
system.ruby.L1Cache_Controller.M_I.WB_Ack::total      1123630                      
system.ruby.L1Cache_Controller.SINK_WB_ACK.WB_Ack |           0      0.00%      0.00% |           0      0.00%      0.00% |           0      0.00%      0.00% |           0      0.00%      0.00% |           0      0.00%      0.00% |           0      0.00%      0.00% |           0      0.00%      0.00% |           0      0.00%      0.00% |           6    100.00%    100.00%
system.ruby.L1Cache_Controller.SINK_WB_ACK.WB_Ack::total            6                      
system.ruby.L1Cache_Controller.S_IL0.Store |           0      0.00%      0.00% |           0      0.00%      0.00% |           1     16.67%     16.67% |           0      0.00%     16.67% |           0      0.00%     16.67% |           2     33.33%     50.00% |           1     16.67%     66.67% |           2     33.33%    100.00% |           0      0.00%    100.00%
system.ruby.L1Cache_Controller.S_IL0.Store::total            6                      
system.ruby.L1Cache_Controller.S_IL0.L0_Invalidate_Own |          21      0.00%      0.00% |       90302     18.26%     18.27% |       57638     11.66%     29.93% |       57592     11.65%     41.58% |       57524     11.63%     53.21% |       57699     11.67%     64.88% |       57861     11.70%     76.58% |       57713     11.67%     88.26% |       58062     11.74%    100.00%
system.ruby.L1Cache_Controller.S_IL0.L0_Invalidate_Own::total       494412                      
system.ruby.L1Cache_Controller.S_IL0.L0_Invalidate_Else |          48     47.52%     47.52% |           5      4.95%     52.48% |          10      9.90%     62.38% |           6      5.94%     68.32% |           5      4.95%     73.27% |           6      5.94%     79.21% |           7      6.93%     86.14% |           7      6.93%     93.07% |           7      6.93%    100.00%
system.ruby.L1Cache_Controller.S_IL0.L0_Invalidate_Else::total          101                      
system.ruby.L1Cache_Controller.S_IL0.L0_Ack |          69      0.01%      0.01% |       90307     18.26%     18.28% |       57648     11.66%     29.93% |       57598     11.65%     41.58% |       57529     11.63%     53.21% |       57705     11.67%     64.88% |       57868     11.70%     76.59% |       57720     11.67%     88.26% |       58069     11.74%    100.00%
system.ruby.L1Cache_Controller.S_IL0.L0_Ack::total       494513                      
system.ruby.L1Cache_Controller.E_IL0.L0_DataAck |         433     39.19%     39.19% |         112     10.14%     49.32% |          72      6.52%     55.84% |          81      7.33%     63.17% |          82      7.42%     70.59% |          84      7.60%     78.19% |          73      6.61%     84.80% |          80      7.24%     92.04% |          88      7.96%    100.00%
system.ruby.L1Cache_Controller.E_IL0.L0_DataAck::total         1105                      
system.ruby.L1Cache_Controller.E_IL0.L0_Invalidate_Own |        3602     43.44%     43.44% |         950     11.46%     54.90% |         567      6.84%     61.74% |         597      7.20%     68.94% |         618      7.45%     76.40% |         502      6.05%     82.45% |         486      5.86%     88.31% |         460      5.55%     93.86% |         509      6.14%    100.00%
system.ruby.L1Cache_Controller.E_IL0.L0_Invalidate_Own::total         8291                      
system.ruby.L1Cache_Controller.E_IL0.L0_Invalidate_Else |         332      3.56%      3.56% |        8935     95.87%     99.43% |           9      0.10%     99.53% |          10      0.11%     99.64% |           8      0.09%     99.72% |           5      0.05%     99.77% |           5      0.05%     99.83% |           9      0.10%     99.92% |           7      0.08%    100.00%
system.ruby.L1Cache_Controller.E_IL0.L0_Invalidate_Else::total         9320                      
system.ruby.L1Cache_Controller.E_IL0.L0_Ack |        3501     21.21%     21.21% |        9773     59.21%     80.42% |         504      3.05%     83.47% |         526      3.19%     86.66% |         544      3.30%     89.96% |         423      2.56%     92.52% |         418      2.53%     95.05% |         389      2.36%     97.41% |         428      2.59%    100.00%
system.ruby.L1Cache_Controller.E_IL0.L0_Ack::total        16506                      
system.ruby.L1Cache_Controller.M_IL0.L0_DataAck |        8387     45.20%     45.20% |         979      5.28%     50.47% |        1744      9.40%     59.87% |         894      4.82%     64.69% |        1017      5.48%     70.17% |        1463      7.88%     78.06% |        1796      9.68%     87.73% |        1636      8.82%     96.55% |         640      3.45%    100.00%
system.ruby.L1Cache_Controller.M_IL0.L0_DataAck::total        18556                      
system.ruby.L1Cache_Controller.M_IL0.L0_Invalidate_Own |        7660     74.18%     74.18% |         614      5.95%     80.13% |         298      2.89%     83.01% |         308      2.98%     86.00% |         376      3.64%     89.64% |         305      2.95%     92.59% |         197      1.91%     94.50% |         283      2.74%     97.24% |         285      2.76%    100.00%
system.ruby.L1Cache_Controller.M_IL0.L0_Invalidate_Own::total        10326                      
system.ruby.L1Cache_Controller.M_IL0.L0_Invalidate_Else |         893      9.83%      9.83% |         722      7.95%     17.77% |        1587     17.47%     35.24% |         606      6.67%     41.91% |         687      7.56%     49.47% |        1228     13.52%     62.99% |        1651     18.17%     81.16% |        1355     14.91%     96.07% |         357      3.93%    100.00%
system.ruby.L1Cache_Controller.M_IL0.L0_Invalidate_Else::total         9086                      
system.ruby.L1Cache_Controller.M_IL0.L0_Ack |         166     19.39%     19.39% |         357     41.71%     61.10% |         141     16.47%     77.57% |          20      2.34%     79.91% |          46      5.37%     85.28% |          70      8.18%     93.46% |          52      6.07%     99.53% |           2      0.23%     99.77% |           2      0.23%    100.00%
system.ruby.L1Cache_Controller.M_IL0.L0_Ack::total          856                      
system.ruby.L2Cache_Controller.L1_GETS        1417718      0.00%      0.00%
system.ruby.L2Cache_Controller.L1_GETX         499397      0.00%      0.00%
system.ruby.L2Cache_Controller.L1_UPGRADE       208234      0.00%      0.00%
system.ruby.L2Cache_Controller.L1_PUTX        1123642      0.00%      0.00%
system.ruby.L2Cache_Controller.L2_Replacement       161646      0.00%      0.00%
system.ruby.L2Cache_Controller.L2_Replacement_clean        22101      0.00%      0.00%
system.ruby.L2Cache_Controller.Mem_Data        452402      0.00%      0.00%
system.ruby.L2Cache_Controller.Mem_Ack         183747      0.00%      0.00%
system.ruby.L2Cache_Controller.WB_Data         215849      0.00%      0.00%
system.ruby.L2Cache_Controller.WB_Data_clean        16130      0.00%      0.00%
system.ruby.L2Cache_Controller.Ack              33743      0.00%      0.00%
system.ruby.L2Cache_Controller.Ack_all           5010      0.00%      0.00%
system.ruby.L2Cache_Controller.Unblock         214281      0.00%      0.00%
system.ruby.L2Cache_Controller.Exclusive_Unblock      1389594      0.00%      0.00%
system.ruby.L2Cache_Controller.NP.L1_GETS       156031      0.00%      0.00%
system.ruby.L2Cache_Controller.NP.L1_GETX       296371      0.00%      0.00%
system.ruby.L2Cache_Controller.SS.L1_GETS       488942      0.00%      0.00%
system.ruby.L2Cache_Controller.SS.L1_GETX           23      0.00%      0.00%
system.ruby.L2Cache_Controller.SS.L1_UPGRADE       206635      0.00%      0.00%
system.ruby.L2Cache_Controller.SS.L1_PUTX            6      0.00%      0.00%
system.ruby.L2Cache_Controller.SS.L2_Replacement         4708      0.00%      0.00%
system.ruby.L2Cache_Controller.SS.L2_Replacement_clean           10      0.00%      0.00%
system.ruby.L2Cache_Controller.M.L1_GETS       527553      0.00%      0.00%
system.ruby.L2Cache_Controller.M.L1_GETX       201287      0.00%      0.00%
system.ruby.L2Cache_Controller.M.L2_Replacement       156727      0.00%      0.00%
system.ruby.L2Cache_Controller.M.L2_Replacement_clean         4312      0.00%      0.00%
system.ruby.L2Cache_Controller.MT.L1_GETS       214281      0.00%      0.00%
system.ruby.L2Cache_Controller.MT.L1_GETX         1706      0.00%      0.00%
system.ruby.L2Cache_Controller.MT.L1_PUTX      1123630      0.00%      0.00%
system.ruby.L2Cache_Controller.MT.L2_Replacement          211      0.00%      0.00%
system.ruby.L2Cache_Controller.MT.L2_Replacement_clean        17779      0.00%      0.00%
system.ruby.L2Cache_Controller.M_I.L1_GETS            3      0.00%      0.00%
system.ruby.L2Cache_Controller.M_I.L1_GETX            1      0.00%      0.00%
system.ruby.L2Cache_Controller.M_I.Mem_Ack       183747      0.00%      0.00%
system.ruby.L2Cache_Controller.MT_I.WB_Data           70      0.00%      0.00%
system.ruby.L2Cache_Controller.MT_I.WB_Data_clean           25      0.00%      0.00%
system.ruby.L2Cache_Controller.MT_I.Ack_all          116      0.00%      0.00%
system.ruby.L2Cache_Controller.MCT_I.WB_Data        17548      0.00%      0.00%
system.ruby.L2Cache_Controller.MCT_I.WB_Data_clean           55      0.00%      0.00%
system.ruby.L2Cache_Controller.MCT_I.Ack_all          176      0.00%      0.00%
system.ruby.L2Cache_Controller.I_I.Ack             70      0.00%      0.00%
system.ruby.L2Cache_Controller.I_I.Ack_all           10      0.00%      0.00%
system.ruby.L2Cache_Controller.S_I.Ack          33673      0.00%      0.00%
system.ruby.L2Cache_Controller.S_I.Ack_all         4708      0.00%      0.00%
system.ruby.L2Cache_Controller.ISS.L1_GETS           12      0.00%      0.00%
system.ruby.L2Cache_Controller.ISS.Mem_Data       156019      0.00%      0.00%
system.ruby.L2Cache_Controller.IS.L1_GETS           14      0.00%      0.00%
system.ruby.L2Cache_Controller.IS.Mem_Data           12      0.00%      0.00%
system.ruby.L2Cache_Controller.IM.Mem_Data       296371      0.00%      0.00%
system.ruby.L2Cache_Controller.SS_MB.L1_GETS          203      0.00%      0.00%
system.ruby.L2Cache_Controller.SS_MB.L1_GETX            7      0.00%      0.00%
system.ruby.L2Cache_Controller.SS_MB.L1_UPGRADE         1599      0.00%      0.00%
system.ruby.L2Cache_Controller.SS_MB.Exclusive_Unblock       206658      0.00%      0.00%
system.ruby.L2Cache_Controller.MT_MB.L1_GETS            9      0.00%      0.00%
system.ruby.L2Cache_Controller.MT_MB.L1_GETX            2      0.00%      0.00%
system.ruby.L2Cache_Controller.MT_MB.Exclusive_Unblock      1182936      0.00%      0.00%
system.ruby.L2Cache_Controller.MT_IIB.L1_GETS        30313      0.00%      0.00%
system.ruby.L2Cache_Controller.MT_IIB.L1_PUTX            6      0.00%      0.00%
system.ruby.L2Cache_Controller.MT_IIB.WB_Data       167709      0.00%      0.00%
system.ruby.L2Cache_Controller.MT_IIB.WB_Data_clean        16033      0.00%      0.00%
system.ruby.L2Cache_Controller.MT_IIB.Unblock        30539      0.00%      0.00%
system.ruby.L2Cache_Controller.MT_IB.WB_Data        30522      0.00%      0.00%
system.ruby.L2Cache_Controller.MT_IB.WB_Data_clean           17      0.00%      0.00%
system.ruby.L2Cache_Controller.MT_SB.L1_GETS          357      0.00%      0.00%
system.ruby.L2Cache_Controller.MT_SB.Unblock       183742      0.00%      0.00%

---------- End Simulation Statistics   ----------
