
---------- Begin Simulation Statistics ----------
sim_seconds                                  0.011252                       # Number of seconds simulated
sim_ticks                                 11252236000                       # Number of ticks simulated
final_tick                                11252236000                       # Number of ticks from beginning of simulation (restored from checkpoints and never reset)
sim_freq                                 1000000000000                       # Frequency of simulated ticks
host_inst_rate                                 151484                       # Simulator instruction rate (inst/s)
host_op_rate                                   342833                       # Simulator op (including micro ops) rate (op/s)
host_tick_rate                              210959313                       # Simulator tick rate (ticks/s)
host_mem_usage                                 753012                       # Number of bytes of host memory used
host_seconds                                    53.34                       # Real time elapsed on the host
sim_insts                                     8079905                       # Number of instructions simulated
sim_ops                                      18286179                       # Number of ops (including micro ops) simulated
system.voltage_domain.voltage                       1                       # Voltage in Volts
system.clk_domain.clock                          1000                       # Clock period in ticks
system.mem_ctrls.bytes_read::ruby.dir_cntrl0       403136                       # Number of bytes read from this memory
system.mem_ctrls.bytes_read::total             403136                       # Number of bytes read from this memory
system.mem_ctrls.num_reads::ruby.dir_cntrl0         6299                       # Number of read requests responded to by this memory
system.mem_ctrls.num_reads::total                6299                       # Number of read requests responded to by this memory
system.mem_ctrls.bw_read::ruby.dir_cntrl0     35827190                       # Total read bandwidth from this memory (bytes/s)
system.mem_ctrls.bw_read::total              35827190                       # Total read bandwidth from this memory (bytes/s)
system.mem_ctrls.bw_total::ruby.dir_cntrl0     35827190                       # Total bandwidth to/from this memory (bytes/s)
system.mem_ctrls.bw_total::total             35827190                       # Total bandwidth to/from this memory (bytes/s)
system.mem_ctrls.readReqs                        6299                       # Number of read requests accepted
system.mem_ctrls.writeReqs                          0                       # Number of write requests accepted
system.mem_ctrls.readBursts                      6299                       # Number of DRAM read bursts, including those serviced by the write queue
system.mem_ctrls.writeBursts                        0                       # Number of DRAM write bursts, including those merged in the write queue
system.mem_ctrls.bytesReadDRAM                 403136                       # Total number of bytes read from DRAM
system.mem_ctrls.bytesReadWrQ                       0                       # Total number of bytes read from write queue
system.mem_ctrls.bytesWritten                       0                       # Total number of bytes written to DRAM
system.mem_ctrls.bytesReadSys                  403136                       # Total read bytes from the system interface side
system.mem_ctrls.bytesWrittenSys                    0                       # Total written bytes from the system interface side
system.mem_ctrls.servicedByWrQ                      0                       # Number of DRAM read bursts serviced by the write queue
system.mem_ctrls.mergedWrBursts                     0                       # Number of DRAM write bursts merged with an existing one
system.mem_ctrls.neitherReadNorWriteReqs            0                       # Number of requests that are neither read nor write
system.mem_ctrls.perBankRdBursts::0               343                       # Per bank write bursts
system.mem_ctrls.perBankRdBursts::1               415                       # Per bank write bursts
system.mem_ctrls.perBankRdBursts::2               394                       # Per bank write bursts
system.mem_ctrls.perBankRdBursts::3               304                       # Per bank write bursts
system.mem_ctrls.perBankRdBursts::4               423                       # Per bank write bursts
system.mem_ctrls.perBankRdBursts::5               424                       # Per bank write bursts
system.mem_ctrls.perBankRdBursts::6               412                       # Per bank write bursts
system.mem_ctrls.perBankRdBursts::7               403                       # Per bank write bursts
system.mem_ctrls.perBankRdBursts::8               298                       # Per bank write bursts
system.mem_ctrls.perBankRdBursts::9               421                       # Per bank write bursts
system.mem_ctrls.perBankRdBursts::10              502                       # Per bank write bursts
system.mem_ctrls.perBankRdBursts::11              546                       # Per bank write bursts
system.mem_ctrls.perBankRdBursts::12              465                       # Per bank write bursts
system.mem_ctrls.perBankRdBursts::13              351                       # Per bank write bursts
system.mem_ctrls.perBankRdBursts::14              297                       # Per bank write bursts
system.mem_ctrls.perBankRdBursts::15              301                       # Per bank write bursts
system.mem_ctrls.perBankWrBursts::0                 0                       # Per bank write bursts
system.mem_ctrls.perBankWrBursts::1                 0                       # Per bank write bursts
system.mem_ctrls.perBankWrBursts::2                 0                       # Per bank write bursts
system.mem_ctrls.perBankWrBursts::3                 0                       # Per bank write bursts
system.mem_ctrls.perBankWrBursts::4                 0                       # Per bank write bursts
system.mem_ctrls.perBankWrBursts::5                 0                       # Per bank write bursts
system.mem_ctrls.perBankWrBursts::6                 0                       # Per bank write bursts
system.mem_ctrls.perBankWrBursts::7                 0                       # Per bank write bursts
system.mem_ctrls.perBankWrBursts::8                 0                       # Per bank write bursts
system.mem_ctrls.perBankWrBursts::9                 0                       # Per bank write bursts
system.mem_ctrls.perBankWrBursts::10                0                       # Per bank write bursts
system.mem_ctrls.perBankWrBursts::11                0                       # Per bank write bursts
system.mem_ctrls.perBankWrBursts::12                0                       # Per bank write bursts
system.mem_ctrls.perBankWrBursts::13                0                       # Per bank write bursts
system.mem_ctrls.perBankWrBursts::14                0                       # Per bank write bursts
system.mem_ctrls.perBankWrBursts::15                0                       # Per bank write bursts
system.mem_ctrls.numRdRetry                         0                       # Number of times read queue was full causing retry
system.mem_ctrls.numWrRetry                         0                       # Number of times write queue was full causing retry
system.mem_ctrls.totGap                   11252175000                       # Total gap between requests
system.mem_ctrls.readPktSize::0                     0                       # Read request sizes (log2)
system.mem_ctrls.readPktSize::1                     0                       # Read request sizes (log2)
system.mem_ctrls.readPktSize::2                     0                       # Read request sizes (log2)
system.mem_ctrls.readPktSize::3                     0                       # Read request sizes (log2)
system.mem_ctrls.readPktSize::4                     0                       # Read request sizes (log2)
system.mem_ctrls.readPktSize::5                     0                       # Read request sizes (log2)
system.mem_ctrls.readPktSize::6                  6299                       # Read request sizes (log2)
system.mem_ctrls.writePktSize::0                    0                       # Write request sizes (log2)
system.mem_ctrls.writePktSize::1                    0                       # Write request sizes (log2)
system.mem_ctrls.writePktSize::2                    0                       # Write request sizes (log2)
system.mem_ctrls.writePktSize::3                    0                       # Write request sizes (log2)
system.mem_ctrls.writePktSize::4                    0                       # Write request sizes (log2)
system.mem_ctrls.writePktSize::5                    0                       # Write request sizes (log2)
system.mem_ctrls.writePktSize::6                    0                       # Write request sizes (log2)
system.mem_ctrls.rdQLenPdf::0                    6298                       # What read queue length does an incoming req see
system.mem_ctrls.rdQLenPdf::1                       1                       # What read queue length does an incoming req see
system.mem_ctrls.rdQLenPdf::2                       0                       # What read queue length does an incoming req see
system.mem_ctrls.rdQLenPdf::3                       0                       # What read queue length does an incoming req see
system.mem_ctrls.rdQLenPdf::4                       0                       # What read queue length does an incoming req see
system.mem_ctrls.rdQLenPdf::5                       0                       # What read queue length does an incoming req see
system.mem_ctrls.rdQLenPdf::6                       0                       # What read queue length does an incoming req see
system.mem_ctrls.rdQLenPdf::7                       0                       # What read queue length does an incoming req see
system.mem_ctrls.rdQLenPdf::8                       0                       # What read queue length does an incoming req see
system.mem_ctrls.rdQLenPdf::9                       0                       # What read queue length does an incoming req see
system.mem_ctrls.rdQLenPdf::10                      0                       # What read queue length does an incoming req see
system.mem_ctrls.rdQLenPdf::11                      0                       # What read queue length does an incoming req see
system.mem_ctrls.rdQLenPdf::12                      0                       # What read queue length does an incoming req see
system.mem_ctrls.rdQLenPdf::13                      0                       # What read queue length does an incoming req see
system.mem_ctrls.rdQLenPdf::14                      0                       # What read queue length does an incoming req see
system.mem_ctrls.rdQLenPdf::15                      0                       # What read queue length does an incoming req see
system.mem_ctrls.rdQLenPdf::16                      0                       # What read queue length does an incoming req see
system.mem_ctrls.rdQLenPdf::17                      0                       # What read queue length does an incoming req see
system.mem_ctrls.rdQLenPdf::18                      0                       # What read queue length does an incoming req see
system.mem_ctrls.rdQLenPdf::19                      0                       # What read queue length does an incoming req see
system.mem_ctrls.rdQLenPdf::20                      0                       # What read queue length does an incoming req see
system.mem_ctrls.rdQLenPdf::21                      0                       # What read queue length does an incoming req see
system.mem_ctrls.rdQLenPdf::22                      0                       # What read queue length does an incoming req see
system.mem_ctrls.rdQLenPdf::23                      0                       # What read queue length does an incoming req see
system.mem_ctrls.rdQLenPdf::24                      0                       # What read queue length does an incoming req see
system.mem_ctrls.rdQLenPdf::25                      0                       # What read queue length does an incoming req see
system.mem_ctrls.rdQLenPdf::26                      0                       # What read queue length does an incoming req see
system.mem_ctrls.rdQLenPdf::27                      0                       # What read queue length does an incoming req see
system.mem_ctrls.rdQLenPdf::28                      0                       # What read queue length does an incoming req see
system.mem_ctrls.rdQLenPdf::29                      0                       # What read queue length does an incoming req see
system.mem_ctrls.rdQLenPdf::30                      0                       # What read queue length does an incoming req see
system.mem_ctrls.rdQLenPdf::31                      0                       # What read queue length does an incoming req see
system.mem_ctrls.wrQLenPdf::0                       0                       # What write queue length does an incoming req see
system.mem_ctrls.wrQLenPdf::1                       0                       # What write queue length does an incoming req see
system.mem_ctrls.wrQLenPdf::2                       0                       # What write queue length does an incoming req see
system.mem_ctrls.wrQLenPdf::3                       0                       # What write queue length does an incoming req see
system.mem_ctrls.wrQLenPdf::4                       0                       # What write queue length does an incoming req see
system.mem_ctrls.wrQLenPdf::5                       0                       # What write queue length does an incoming req see
system.mem_ctrls.wrQLenPdf::6                       0                       # What write queue length does an incoming req see
system.mem_ctrls.wrQLenPdf::7                       0                       # What write queue length does an incoming req see
system.mem_ctrls.wrQLenPdf::8                       0                       # What write queue length does an incoming req see
system.mem_ctrls.wrQLenPdf::9                       0                       # What write queue length does an incoming req see
system.mem_ctrls.wrQLenPdf::10                      0                       # What write queue length does an incoming req see
system.mem_ctrls.wrQLenPdf::11                      0                       # What write queue length does an incoming req see
system.mem_ctrls.wrQLenPdf::12                      0                       # What write queue length does an incoming req see
system.mem_ctrls.wrQLenPdf::13                      0                       # What write queue length does an incoming req see
system.mem_ctrls.wrQLenPdf::14                      0                       # What write queue length does an incoming req see
system.mem_ctrls.wrQLenPdf::15                      0                       # What write queue length does an incoming req see
system.mem_ctrls.wrQLenPdf::16                      0                       # What write queue length does an incoming req see
system.mem_ctrls.wrQLenPdf::17                      0                       # What write queue length does an incoming req see
system.mem_ctrls.wrQLenPdf::18                      0                       # What write queue length does an incoming req see
system.mem_ctrls.wrQLenPdf::19                      0                       # What write queue length does an incoming req see
system.mem_ctrls.wrQLenPdf::20                      0                       # What write queue length does an incoming req see
system.mem_ctrls.wrQLenPdf::21                      0                       # What write queue length does an incoming req see
system.mem_ctrls.wrQLenPdf::22                      0                       # What write queue length does an incoming req see
system.mem_ctrls.wrQLenPdf::23                      0                       # What write queue length does an incoming req see
system.mem_ctrls.wrQLenPdf::24                      0                       # What write queue length does an incoming req see
system.mem_ctrls.wrQLenPdf::25                      0                       # What write queue length does an incoming req see
system.mem_ctrls.wrQLenPdf::26                      0                       # What write queue length does an incoming req see
system.mem_ctrls.wrQLenPdf::27                      0                       # What write queue length does an incoming req see
system.mem_ctrls.wrQLenPdf::28                      0                       # What write queue length does an incoming req see
system.mem_ctrls.wrQLenPdf::29                      0                       # What write queue length does an incoming req see
system.mem_ctrls.wrQLenPdf::30                      0                       # What write queue length does an incoming req see
system.mem_ctrls.wrQLenPdf::31                      0                       # What write queue length does an incoming req see
system.mem_ctrls.wrQLenPdf::32                      0                       # What write queue length does an incoming req see
system.mem_ctrls.wrQLenPdf::33                      0                       # What write queue length does an incoming req see
system.mem_ctrls.wrQLenPdf::34                      0                       # What write queue length does an incoming req see
system.mem_ctrls.wrQLenPdf::35                      0                       # What write queue length does an incoming req see
system.mem_ctrls.wrQLenPdf::36                      0                       # What write queue length does an incoming req see
system.mem_ctrls.wrQLenPdf::37                      0                       # What write queue length does an incoming req see
system.mem_ctrls.wrQLenPdf::38                      0                       # What write queue length does an incoming req see
system.mem_ctrls.wrQLenPdf::39                      0                       # What write queue length does an incoming req see
system.mem_ctrls.wrQLenPdf::40                      0                       # What write queue length does an incoming req see
system.mem_ctrls.wrQLenPdf::41                      0                       # What write queue length does an incoming req see
system.mem_ctrls.wrQLenPdf::42                      0                       # What write queue length does an incoming req see
system.mem_ctrls.wrQLenPdf::43                      0                       # What write queue length does an incoming req see
system.mem_ctrls.wrQLenPdf::44                      0                       # What write queue length does an incoming req see
system.mem_ctrls.wrQLenPdf::45                      0                       # What write queue length does an incoming req see
system.mem_ctrls.wrQLenPdf::46                      0                       # What write queue length does an incoming req see
system.mem_ctrls.wrQLenPdf::47                      0                       # What write queue length does an incoming req see
system.mem_ctrls.wrQLenPdf::48                      0                       # What write queue length does an incoming req see
system.mem_ctrls.wrQLenPdf::49                      0                       # What write queue length does an incoming req see
system.mem_ctrls.wrQLenPdf::50                      0                       # What write queue length does an incoming req see
system.mem_ctrls.wrQLenPdf::51                      0                       # What write queue length does an incoming req see
system.mem_ctrls.wrQLenPdf::52                      0                       # What write queue length does an incoming req see
system.mem_ctrls.wrQLenPdf::53                      0                       # What write queue length does an incoming req see
system.mem_ctrls.wrQLenPdf::54                      0                       # What write queue length does an incoming req see
system.mem_ctrls.wrQLenPdf::55                      0                       # What write queue length does an incoming req see
system.mem_ctrls.wrQLenPdf::56                      0                       # What write queue length does an incoming req see
system.mem_ctrls.wrQLenPdf::57                      0                       # What write queue length does an incoming req see
system.mem_ctrls.wrQLenPdf::58                      0                       # What write queue length does an incoming req see
system.mem_ctrls.wrQLenPdf::59                      0                       # What write queue length does an incoming req see
system.mem_ctrls.wrQLenPdf::60                      0                       # What write queue length does an incoming req see
system.mem_ctrls.wrQLenPdf::61                      0                       # What write queue length does an incoming req see
system.mem_ctrls.wrQLenPdf::62                      0                       # What write queue length does an incoming req see
system.mem_ctrls.wrQLenPdf::63                      0                       # What write queue length does an incoming req see
system.mem_ctrls.bytesPerActivate::samples         1499                       # Bytes accessed per row activation
system.mem_ctrls.bytesPerActivate::mean    268.509673                       # Bytes accessed per row activation
system.mem_ctrls.bytesPerActivate::gmean   225.346216                       # Bytes accessed per row activation
system.mem_ctrls.bytesPerActivate::stdev   173.725645                       # Bytes accessed per row activation
system.mem_ctrls.bytesPerActivate::0-127          195     13.01%     13.01% # Bytes accessed per row activation
system.mem_ctrls.bytesPerActivate::128-255          202     13.48%     26.48% # Bytes accessed per row activation
system.mem_ctrls.bytesPerActivate::256-383          946     63.11%     89.59% # Bytes accessed per row activation
system.mem_ctrls.bytesPerActivate::384-511           56      3.74%     93.33% # Bytes accessed per row activation
system.mem_ctrls.bytesPerActivate::512-639           27      1.80%     95.13% # Bytes accessed per row activation
system.mem_ctrls.bytesPerActivate::640-767           14      0.93%     96.06% # Bytes accessed per row activation
system.mem_ctrls.bytesPerActivate::768-895           15      1.00%     97.06% # Bytes accessed per row activation
system.mem_ctrls.bytesPerActivate::896-1023            9      0.60%     97.67% # Bytes accessed per row activation
system.mem_ctrls.bytesPerActivate::1024-1151           35      2.33%    100.00% # Bytes accessed per row activation
system.mem_ctrls.bytesPerActivate::total         1499                       # Bytes accessed per row activation
system.mem_ctrls.totQLat                     54267000                       # Total ticks spent queuing
system.mem_ctrls.totMemAccLat               172373250                       # Total ticks spent from burst creation until serviced by the DRAM
system.mem_ctrls.totBusLat                   31495000                       # Total ticks spent in databus transfers
system.mem_ctrls.avgQLat                      8615.18                       # Average queueing delay per DRAM burst
system.mem_ctrls.avgBusLat                    5000.00                       # Average bus latency per DRAM burst
system.mem_ctrls.avgMemAccLat                27365.18                       # Average memory access latency per DRAM burst
system.mem_ctrls.avgRdBW                        35.83                       # Average DRAM read bandwidth in MiByte/s
system.mem_ctrls.avgWrBW                         0.00                       # Average achieved write bandwidth in MiByte/s
system.mem_ctrls.avgRdBWSys                     35.83                       # Average system read bandwidth in MiByte/s
system.mem_ctrls.avgWrBWSys                      0.00                       # Average system write bandwidth in MiByte/s
system.mem_ctrls.peakBW                      12800.00                       # Theoretical peak bandwidth in MiByte/s
system.mem_ctrls.busUtil                         0.28                       # Data bus utilization in percentage
system.mem_ctrls.busUtilRead                     0.28                       # Data bus utilization in percentage for reads
system.mem_ctrls.busUtilWrite                    0.00                       # Data bus utilization in percentage for writes
system.mem_ctrls.avgRdQLen                       1.00                       # Average read queue length when enqueuing
system.mem_ctrls.avgWrQLen                       0.00                       # Average write queue length when enqueuing
system.mem_ctrls.readRowHits                     4796                       # Number of row buffer hits during reads
system.mem_ctrls.writeRowHits                       0                       # Number of row buffer hits during writes
system.mem_ctrls.readRowHitRate                 76.14                       # Row buffer hit rate for reads
system.mem_ctrls.writeRowHitRate                  nan                       # Row buffer hit rate for writes
system.mem_ctrls.avgGap                    1786343.07                       # Average gap between requests
system.mem_ctrls.pageHitRate                    76.14                       # Row buffer hit rate, read and write combined
system.mem_ctrls_0.actEnergy                  6078240                       # Energy for activate commands per rank (pJ)
system.mem_ctrls_0.preEnergy                  3316500                       # Energy for precharge commands per rank (pJ)
system.mem_ctrls_0.readEnergy                24312600                       # Energy for read commands per rank (pJ)
system.mem_ctrls_0.writeEnergy                      0                       # Energy for write commands per rank (pJ)
system.mem_ctrls_0.refreshEnergy            734869200                       # Energy for refresh commands per rank (pJ)
system.mem_ctrls_0.actBackEnergy           2683385010                       # Energy for active background per rank (pJ)
system.mem_ctrls_0.preBackEnergy           4396988250                       # Energy for precharge background per rank (pJ)
system.mem_ctrls_0.totalEnergy             7848949800                       # Total energy per rank (pJ)
system.mem_ctrls_0.averagePower            697.598157                       # Core power per rank (mW)
system.mem_ctrls_0.memoryStateTime::IDLE   7301450750                       # Time in different power states
system.mem_ctrls_0.memoryStateTime::REF     375700000                       # Time in different power states
system.mem_ctrls_0.memoryStateTime::PRE_PDN            0                       # Time in different power states
system.mem_ctrls_0.memoryStateTime::ACT    3574849250                       # Time in different power states
system.mem_ctrls_0.memoryStateTime::ACT_PDN            0                       # Time in different power states
system.mem_ctrls_1.actEnergy                  5254200                       # Energy for activate commands per rank (pJ)
system.mem_ctrls_1.preEnergy                  2866875                       # Energy for precharge commands per rank (pJ)
system.mem_ctrls_1.readEnergy                24741600                       # Energy for read commands per rank (pJ)
system.mem_ctrls_1.writeEnergy                      0                       # Energy for write commands per rank (pJ)
system.mem_ctrls_1.refreshEnergy            734869200                       # Energy for refresh commands per rank (pJ)
system.mem_ctrls_1.actBackEnergy           2689010910                       # Energy for active background per rank (pJ)
system.mem_ctrls_1.preBackEnergy           4392053250                       # Energy for precharge background per rank (pJ)
system.mem_ctrls_1.totalEnergy             7848796035                       # Total energy per rank (pJ)
system.mem_ctrls_1.averagePower            697.584491                       # Core power per rank (mW)
system.mem_ctrls_1.memoryStateTime::IDLE   7292382500                       # Time in different power states
system.mem_ctrls_1.memoryStateTime::REF     375700000                       # Time in different power states
system.mem_ctrls_1.memoryStateTime::PRE_PDN            0                       # Time in different power states
system.mem_ctrls_1.memoryStateTime::ACT    3583322500                       # Time in different power states
system.mem_ctrls_1.memoryStateTime::ACT_PDN            0                       # Time in different power states
system.cpu_voltage_domain.voltage                   1                       # Voltage in Volts
system.cpu_clk_domain.clock                       500                       # Clock period in ticks
system.cpu0.apic_clk_domain.clock                8000                       # Clock period in ticks
system.cpu0.workload.num_syscalls                 140                       # Number of system calls
system.cpu0.numCycles                        22504472                       # number of cpu cycles simulated
system.cpu0.numWorkItemsStarted                     0                       # number of work items this cpu started
system.cpu0.numWorkItemsCompleted                   0                       # number of work items this cpu completed
system.cpu0.committedInsts                    6196469                       # Number of instructions committed
system.cpu0.committedOps                     14594426                       # Number of ops (including micro ops) committed
system.cpu0.num_int_alu_accesses             13949837                       # Number of integer alu accesses
system.cpu0.num_fp_alu_accesses                307930                       # Number of float alu accesses
system.cpu0.num_func_calls                     397126                       # number of times a function call or return occured
system.cpu0.num_conditional_control_insts      1289389                       # number of instructions that are conditional controls
system.cpu0.num_int_insts                    13949837                       # number of integer instructions
system.cpu0.num_fp_insts                       307930                       # number of float instructions
system.cpu0.num_int_register_reads           29771544                       # number of times the integer registers were read
system.cpu0.num_int_register_writes          13062111                       # number of times the integer registers were written
system.cpu0.num_fp_register_reads              493490                       # number of times the floating registers were read
system.cpu0.num_fp_register_writes             245368                       # number of times the floating registers were written
system.cpu0.num_cc_register_reads            11635646                       # number of times the CC registers were read
system.cpu0.num_cc_register_writes            4323935                       # number of times the CC registers were written
system.cpu0.num_mem_refs                      2983916                       # number of memory refs
system.cpu0.num_load_insts                    1897527                       # Number of load instructions
system.cpu0.num_store_insts                   1086389                       # Number of store instructions
system.cpu0.num_idle_cycles                  0.002000                       # Number of idle cycles
system.cpu0.num_busy_cycles              22504471.998000                       # Number of busy cycles
system.cpu0.not_idle_fraction                1.000000                       # Percentage of non-idle cycles
system.cpu0.idle_fraction                    0.000000                       # Percentage of idle cycles
system.cpu0.Branches                          1882358                       # Number of branches fetched
system.cpu0.op_class::No_OpClass               199191      1.36%      1.36% # Class of executed instruction
system.cpu0.op_class::IntAlu                 10195205     69.86%     71.22% # Class of executed instruction
system.cpu0.op_class::IntMult                     654      0.00%     71.23% # Class of executed instruction
system.cpu0.op_class::IntDiv                   971083      6.65%     77.88% # Class of executed instruction
system.cpu0.op_class::FloatAdd                 244377      1.67%     79.55% # Class of executed instruction
system.cpu0.op_class::FloatCmp                      0      0.00%     79.55% # Class of executed instruction
system.cpu0.op_class::FloatCvt                      0      0.00%     79.55% # Class of executed instruction
system.cpu0.op_class::FloatMult                     0      0.00%     79.55% # Class of executed instruction
system.cpu0.op_class::FloatDiv                      0      0.00%     79.55% # Class of executed instruction
system.cpu0.op_class::FloatSqrt                     0      0.00%     79.55% # Class of executed instruction
system.cpu0.op_class::SimdAdd                       0      0.00%     79.55% # Class of executed instruction
system.cpu0.op_class::SimdAddAcc                    0      0.00%     79.55% # Class of executed instruction
system.cpu0.op_class::SimdAlu                       0      0.00%     79.55% # Class of executed instruction
system.cpu0.op_class::SimdCmp                       0      0.00%     79.55% # Class of executed instruction
system.cpu0.op_class::SimdCvt                       0      0.00%     79.55% # Class of executed instruction
system.cpu0.op_class::SimdMisc                      0      0.00%     79.55% # Class of executed instruction
system.cpu0.op_class::SimdMult                      0      0.00%     79.55% # Class of executed instruction
system.cpu0.op_class::SimdMultAcc                   0      0.00%     79.55% # Class of executed instruction
system.cpu0.op_class::SimdShift                     0      0.00%     79.55% # Class of executed instruction
system.cpu0.op_class::SimdShiftAcc                  0      0.00%     79.55% # Class of executed instruction
system.cpu0.op_class::SimdSqrt                      0      0.00%     79.55% # Class of executed instruction
system.cpu0.op_class::SimdFloatAdd                  0      0.00%     79.55% # Class of executed instruction
system.cpu0.op_class::SimdFloatAlu                  0      0.00%     79.55% # Class of executed instruction
system.cpu0.op_class::SimdFloatCmp                  0      0.00%     79.55% # Class of executed instruction
system.cpu0.op_class::SimdFloatCvt                  0      0.00%     79.55% # Class of executed instruction
system.cpu0.op_class::SimdFloatDiv                  0      0.00%     79.55% # Class of executed instruction
system.cpu0.op_class::SimdFloatMisc                 0      0.00%     79.55% # Class of executed instruction
system.cpu0.op_class::SimdFloatMult                 0      0.00%     79.55% # Class of executed instruction
system.cpu0.op_class::SimdFloatMultAcc              0      0.00%     79.55% # Class of executed instruction
system.cpu0.op_class::SimdFloatSqrt                 0      0.00%     79.55% # Class of executed instruction
system.cpu0.op_class::MemRead                 1897527     13.00%     92.56% # Class of executed instruction
system.cpu0.op_class::MemWrite                1086389      7.44%    100.00% # Class of executed instruction
system.cpu0.op_class::IprAccess                     0      0.00%    100.00% # Class of executed instruction
system.cpu0.op_class::InstPrefetch                  0      0.00%    100.00% # Class of executed instruction
system.cpu0.op_class::total                  14594426                       # Class of executed instruction
system.cpu1.apic_clk_domain.clock                8000                       # Clock period in ticks
system.cpu1.numCycles                        22332239                       # number of cpu cycles simulated
system.cpu1.numWorkItemsStarted                     0                       # number of work items this cpu started
system.cpu1.numWorkItemsCompleted                   0                       # number of work items this cpu completed
system.cpu1.committedInsts                    1883436                       # Number of instructions committed
system.cpu1.committedOps                      3691753                       # Number of ops (including micro ops) committed
system.cpu1.num_int_alu_accesses              2931340                       # Number of integer alu accesses
system.cpu1.num_fp_alu_accesses               1742201                       # Number of float alu accesses
system.cpu1.num_func_calls                      27321                       # number of times a function call or return occured
system.cpu1.num_conditional_control_insts       200474                       # number of instructions that are conditional controls
system.cpu1.num_int_insts                     2931340                       # number of integer instructions
system.cpu1.num_fp_insts                      1742201                       # number of float instructions
system.cpu1.num_int_register_reads            5580649                       # number of times the integer registers were read
system.cpu1.num_int_register_writes           1731527                       # number of times the integer registers were written
system.cpu1.num_fp_register_reads             2457524                       # number of times the floating registers were read
system.cpu1.num_fp_register_writes            1466781                       # number of times the floating registers were written
system.cpu1.num_cc_register_reads             1216604                       # number of times the CC registers were read
system.cpu1.num_cc_register_writes            1206405                       # number of times the CC registers were written
system.cpu1.num_mem_refs                      1049668                       # number of memory refs
system.cpu1.num_load_insts                     760259                       # Number of load instructions
system.cpu1.num_store_insts                    289409                       # Number of store instructions
system.cpu1.num_idle_cycles              15029779.780813                       # Number of idle cycles
system.cpu1.num_busy_cycles              7302459.219187                       # Number of busy cycles
system.cpu1.not_idle_fraction                0.326992                       # Percentage of non-idle cycles
system.cpu1.idle_fraction                    0.673008                       # Percentage of idle cycles
system.cpu1.Branches                           243109                       # Number of branches fetched
system.cpu1.op_class::No_OpClass                    9      0.00%      0.00% # Class of executed instruction
system.cpu1.op_class::IntAlu                  1842545     49.91%     49.91% # Class of executed instruction
system.cpu1.op_class::IntMult                   39046      1.06%     50.97% # Class of executed instruction
system.cpu1.op_class::IntDiv                       63      0.00%     50.97% # Class of executed instruction
system.cpu1.op_class::FloatAdd                 760422     20.60%     71.57% # Class of executed instruction
system.cpu1.op_class::FloatCmp                      0      0.00%     71.57% # Class of executed instruction
system.cpu1.op_class::FloatCvt                      0      0.00%     71.57% # Class of executed instruction
system.cpu1.op_class::FloatMult                     0      0.00%     71.57% # Class of executed instruction
system.cpu1.op_class::FloatDiv                      0      0.00%     71.57% # Class of executed instruction
system.cpu1.op_class::FloatSqrt                     0      0.00%     71.57% # Class of executed instruction
system.cpu1.op_class::SimdAdd                       0      0.00%     71.57% # Class of executed instruction
system.cpu1.op_class::SimdAddAcc                    0      0.00%     71.57% # Class of executed instruction
system.cpu1.op_class::SimdAlu                       0      0.00%     71.57% # Class of executed instruction
system.cpu1.op_class::SimdCmp                       0      0.00%     71.57% # Class of executed instruction
system.cpu1.op_class::SimdCvt                       0      0.00%     71.57% # Class of executed instruction
system.cpu1.op_class::SimdMisc                      0      0.00%     71.57% # Class of executed instruction
system.cpu1.op_class::SimdMult                      0      0.00%     71.57% # Class of executed instruction
system.cpu1.op_class::SimdMultAcc                   0      0.00%     71.57% # Class of executed instruction
system.cpu1.op_class::SimdShift                     0      0.00%     71.57% # Class of executed instruction
system.cpu1.op_class::SimdShiftAcc                  0      0.00%     71.57% # Class of executed instruction
system.cpu1.op_class::SimdSqrt                      0      0.00%     71.57% # Class of executed instruction
system.cpu1.op_class::SimdFloatAdd                  0      0.00%     71.57% # Class of executed instruction
system.cpu1.op_class::SimdFloatAlu                  0      0.00%     71.57% # Class of executed instruction
system.cpu1.op_class::SimdFloatCmp                  0      0.00%     71.57% # Class of executed instruction
system.cpu1.op_class::SimdFloatCvt                  0      0.00%     71.57% # Class of executed instruction
system.cpu1.op_class::SimdFloatDiv                  0      0.00%     71.57% # Class of executed instruction
system.cpu1.op_class::SimdFloatMisc                 0      0.00%     71.57% # Class of executed instruction
system.cpu1.op_class::SimdFloatMult                 0      0.00%     71.57% # Class of executed instruction
system.cpu1.op_class::SimdFloatMultAcc              0      0.00%     71.57% # Class of executed instruction
system.cpu1.op_class::SimdFloatSqrt                 0      0.00%     71.57% # Class of executed instruction
system.cpu1.op_class::MemRead                  760259     20.59%     92.16% # Class of executed instruction
system.cpu1.op_class::MemWrite                 289409      7.84%    100.00% # Class of executed instruction
system.cpu1.op_class::IprAccess                     0      0.00%    100.00% # Class of executed instruction
system.cpu1.op_class::InstPrefetch                  0      0.00%    100.00% # Class of executed instruction
system.cpu1.op_class::total                   3691753                       # Class of executed instruction
system.ruby.clk_domain.clock                      500                       # Clock period in ticks
system.ruby.delayHist::bucket_size                  4                       # delay histogram for all message
system.ruby.delayHist::max_bucket                  39                       # delay histogram for all message
system.ruby.delayHist::samples                  95657                       # delay histogram for all message
system.ruby.delayHist::mean                  0.455523                       # delay histogram for all message
system.ruby.delayHist::stdev                 1.832308                       # delay histogram for all message
system.ruby.delayHist                    |       90027     94.11%     94.11% |         517      0.54%     94.65% |        5110      5.34%    100.00% |           2      0.00%    100.00% |           0      0.00%    100.00% |           1      0.00%    100.00% |           0      0.00%    100.00% |           0      0.00%    100.00% |           0      0.00%    100.00% |           0      0.00%    100.00% # delay histogram for all message
system.ruby.delayHist::total                    95657                       # delay histogram for all message
system.ruby.outstanding_req_hist::bucket_size            1                      
system.ruby.outstanding_req_hist::max_bucket            9                      
system.ruby.outstanding_req_hist::samples     14393714                      
system.ruby.outstanding_req_hist::mean       1.001497                      
system.ruby.outstanding_req_hist::gmean      1.001038                      
system.ruby.outstanding_req_hist::stdev      0.038657                      
system.ruby.outstanding_req_hist         |           0      0.00%      0.00% |    14372172     99.85%     99.85% |       21542      0.15%    100.00% |           0      0.00%    100.00% |           0      0.00%    100.00% |           0      0.00%    100.00% |           0      0.00%    100.00% |           0      0.00%    100.00% |           0      0.00%    100.00% |           0      0.00%    100.00%
system.ruby.outstanding_req_hist::total      14393714                      
system.ruby.latency_hist::bucket_size             128                      
system.ruby.latency_hist::max_bucket             1279                      
system.ruby.latency_hist::samples            14393714                      
system.ruby.latency_hist::mean               1.076305                      
system.ruby.latency_hist::gmean              1.005595                      
system.ruby.latency_hist::stdev              3.196241                      
system.ruby.latency_hist                 |    14392211     99.99%     99.99% |        1359      0.01%    100.00% |           9      0.00%    100.00% |          16      0.00%    100.00% |          77      0.00%    100.00% |          42      0.00%    100.00% |           0      0.00%    100.00% |           0      0.00%    100.00% |           0      0.00%    100.00% |           0      0.00%    100.00%
system.ruby.latency_hist::total              14393714                      
system.ruby.hit_latency_hist::bucket_size          128                      
system.ruby.hit_latency_hist::max_bucket         1279                      
system.ruby.hit_latency_hist::samples        14393714                      
system.ruby.hit_latency_hist::mean           1.076305                      
system.ruby.hit_latency_hist::gmean          1.005595                      
system.ruby.hit_latency_hist::stdev          3.196241                      
system.ruby.hit_latency_hist             |    14392211     99.99%     99.99% |        1359      0.01%    100.00% |           9      0.00%    100.00% |          16      0.00%    100.00% |          77      0.00%    100.00% |          42      0.00%    100.00% |           0      0.00%    100.00% |           0      0.00%    100.00% |           0      0.00%    100.00% |           0      0.00%    100.00%
system.ruby.hit_latency_hist::total          14393714                      
system.ruby.l0_cntrl0.Dcache.demand_hits      2978812                       # Number of cache demand hits
system.ruby.l0_cntrl0.Dcache.demand_misses         5154                       # Number of cache demand misses
system.ruby.l0_cntrl0.Dcache.demand_accesses      2983966                       # Number of cache demand accesses
system.ruby.l0_cntrl0.Icache.demand_hits      7884229                       # Number of cache demand hits
system.ruby.l0_cntrl0.Icache.demand_misses         2170                       # Number of cache demand misses
system.ruby.l0_cntrl0.Icache.demand_accesses      7886399                       # Number of cache demand accesses
system.ruby.l0_cntrl0.Zcache.demand_hits            0                       # Number of cache demand hits
system.ruby.l0_cntrl0.Zcache.demand_misses            0                       # Number of cache demand misses
system.ruby.l0_cntrl0.Zcache.demand_accesses            0                       # Number of cache demand accesses
system.ruby.l0_cntrl1.Dcache.demand_hits      1049499                       # Number of cache demand hits
system.ruby.l0_cntrl1.Dcache.demand_misses        21661                       # Number of cache demand misses
system.ruby.l0_cntrl1.Dcache.demand_accesses      1071160                       # Number of cache demand accesses
system.ruby.l0_cntrl1.Icache.demand_hits      2452125                       # Number of cache demand hits
system.ruby.l0_cntrl1.Icache.demand_misses           64                       # Number of cache demand misses
system.ruby.l0_cntrl1.Icache.demand_accesses      2452189                       # Number of cache demand accesses
system.ruby.l0_cntrl1.Zcache.demand_hits            0                       # Number of cache demand hits
system.ruby.l0_cntrl1.Zcache.demand_misses            0                       # Number of cache demand misses
system.ruby.l0_cntrl1.Zcache.demand_accesses            0                       # Number of cache demand accesses
system.ruby.l1_cntrl0.cache.demand_hits          1362                       # Number of cache demand hits
system.ruby.l1_cntrl0.cache.demand_misses         5962                       # Number of cache demand misses
system.ruby.l1_cntrl0.cache.demand_accesses         7324                       # Number of cache demand accesses
system.ruby.l1_cntrl1.cache.demand_hits         13643                       # Number of cache demand hits
system.ruby.l1_cntrl1.cache.demand_misses         8082                       # Number of cache demand misses
system.ruby.l1_cntrl1.cache.demand_accesses        21725                       # Number of cache demand accesses
system.ruby.l2_cntrl0.L2cache.demand_hits         4331                       # Number of cache demand hits
system.ruby.l2_cntrl0.L2cache.demand_misses         9713                       # Number of cache demand misses
system.ruby.l2_cntrl0.L2cache.demand_accesses        14044                       # Number of cache demand accesses
system.ruby.memctrl_clk_domain.clock             1500                       # Clock period in ticks
system.ruby.network.routers0.percent_links_utilized            0                      
system.ruby.network.routers1.percent_links_utilized            0                      
system.ruby.network.routers2.percent_links_utilized     0.163587                      
system.ruby.network.routers2.msg_count.Control::0         5962                      
system.ruby.network.routers2.msg_count.Request_Control::2         6316                      
system.ruby.network.routers2.msg_count.Response_Data::1        12662                      
system.ruby.network.routers2.msg_count.Response_Control::1         4543                      
system.ruby.network.routers2.msg_count.Response_Control::2         5961                      
system.ruby.network.routers2.msg_count.Writeback_Data::0         1125                      
system.ruby.network.routers2.msg_count.Writeback_Control::0          393                      
system.ruby.network.routers2.msg_bytes.Control::0        47696                      
system.ruby.network.routers2.msg_bytes.Request_Control::2        50528                      
system.ruby.network.routers2.msg_bytes.Response_Data::1       911664                      
system.ruby.network.routers2.msg_bytes.Response_Control::1        36344                      
system.ruby.network.routers2.msg_bytes.Response_Control::2        47688                      
system.ruby.network.routers2.msg_bytes.Writeback_Data::0        81000                      
system.ruby.network.routers2.msg_bytes.Writeback_Control::0         3144                      
system.ruby.network.routers3.percent_links_utilized     0.083291                      
system.ruby.network.routers3.msg_count.Control::0         8082                      
system.ruby.network.routers3.msg_count.Request_Control::2           81                      
system.ruby.network.routers3.msg_count.Response_Data::1         5217                      
system.ruby.network.routers3.msg_count.Response_Control::1         6634                      
system.ruby.network.routers3.msg_count.Response_Control::2         7861                      
system.ruby.network.routers3.msg_count.Writeback_Data::0          582                      
system.ruby.network.routers3.msg_count.Writeback_Control::0          128                      
system.ruby.network.routers3.msg_bytes.Control::0        64656                      
system.ruby.network.routers3.msg_bytes.Request_Control::2          648                      
system.ruby.network.routers3.msg_bytes.Response_Data::1       375624                      
system.ruby.network.routers3.msg_bytes.Response_Control::1        53072                      
system.ruby.network.routers3.msg_bytes.Response_Control::2        62888                      
system.ruby.network.routers3.msg_bytes.Writeback_Data::0        41904                      
system.ruby.network.routers3.msg_bytes.Writeback_Control::0         1024                      
system.ruby.network.routers4.percent_links_utilized     0.241960                      
system.ruby.network.routers4.msg_count.Control::0        20343                      
system.ruby.network.routers4.msg_count.Request_Control::2         6397                      
system.ruby.network.routers4.msg_count.Response_Data::1        17350                      
system.ruby.network.routers4.msg_count.Response_Control::1         5211                      
system.ruby.network.routers4.msg_count.Response_Control::2        13822                      
system.ruby.network.routers4.msg_count.Writeback_Data::0         1707                      
system.ruby.network.routers4.msg_count.Writeback_Control::0          521                      
system.ruby.network.routers4.msg_bytes.Control::0       162744                      
system.ruby.network.routers4.msg_bytes.Request_Control::2        51176                      
system.ruby.network.routers4.msg_bytes.Response_Data::1      1249200                      
system.ruby.network.routers4.msg_bytes.Response_Control::1        41688                      
system.ruby.network.routers4.msg_bytes.Response_Control::2       110576                      
system.ruby.network.routers4.msg_bytes.Writeback_Data::0       122904                      
system.ruby.network.routers4.msg_bytes.Writeback_Control::0         4168                      
system.ruby.network.routers5.percent_links_utilized     0.069975                      
system.ruby.network.routers5.msg_count.Control::0         6299                      
system.ruby.network.routers5.msg_count.Response_Data::1         6299                      
system.ruby.network.routers5.msg_bytes.Control::0        50392                      
system.ruby.network.routers5.msg_bytes.Response_Data::1       453528                      
system.ruby.network.routers6.percent_links_utilized     0.093136                      
system.ruby.network.routers6.msg_count.Control::0        20343                      
system.ruby.network.routers6.msg_count.Request_Control::2         6397                      
system.ruby.network.routers6.msg_count.Response_Data::1        20764                      
system.ruby.network.routers6.msg_count.Response_Control::1         8194                      
system.ruby.network.routers6.msg_count.Response_Control::2        13822                      
system.ruby.network.routers6.msg_count.Writeback_Data::0         1707                      
system.ruby.network.routers6.msg_count.Writeback_Control::0          521                      
system.ruby.network.routers6.msg_bytes.Control::0       162744                      
system.ruby.network.routers6.msg_bytes.Request_Control::2        51176                      
system.ruby.network.routers6.msg_bytes.Response_Data::1      1495008                      
system.ruby.network.routers6.msg_bytes.Response_Control::1        65552                      
system.ruby.network.routers6.msg_bytes.Response_Control::2       110576                      
system.ruby.network.routers6.msg_bytes.Writeback_Data::0       122904                      
system.ruby.network.routers6.msg_bytes.Writeback_Control::0         4168                      
system.ruby.network.msg_count.Control           61029                      
system.ruby.network.msg_count.Request_Control        19191                      
system.ruby.network.msg_count.Response_Data        62292                      
system.ruby.network.msg_count.Response_Control        66048                      
system.ruby.network.msg_count.Writeback_Data         5121                      
system.ruby.network.msg_count.Writeback_Control         1563                      
system.ruby.network.msg_byte.Control           488232                      
system.ruby.network.msg_byte.Request_Control       153528                      
system.ruby.network.msg_byte.Response_Data      4485024                      
system.ruby.network.msg_byte.Response_Control       528384                      
system.ruby.network.msg_byte.Writeback_Data       368712                      
system.ruby.network.msg_byte.Writeback_Control        12504                      
system.ruby.network.routers0.throttle0.link_utilization            0                      
system.ruby.network.routers0.throttle1.link_utilization            0                      
system.ruby.network.routers1.throttle0.link_utilization            0                      
system.ruby.network.routers1.throttle1.link_utilization            0                      
system.ruby.network.routers2.throttle0.link_utilization     0.135969                      
system.ruby.network.routers2.throttle0.msg_count.Request_Control::2         6316                      
system.ruby.network.routers2.throttle0.msg_count.Response_Data::1         5920                      
system.ruby.network.routers2.throttle0.msg_count.Response_Control::1         1602                      
system.ruby.network.routers2.throttle0.msg_bytes.Request_Control::2        50528                      
system.ruby.network.routers2.throttle0.msg_bytes.Response_Data::1       426240                      
system.ruby.network.routers2.throttle0.msg_bytes.Response_Control::1        12816                      
system.ruby.network.routers2.throttle1.link_utilization     0.191206                      
system.ruby.network.routers2.throttle1.msg_count.Control::0         5962                      
system.ruby.network.routers2.throttle1.msg_count.Response_Data::1         6742                      
system.ruby.network.routers2.throttle1.msg_count.Response_Control::1         2941                      
system.ruby.network.routers2.throttle1.msg_count.Response_Control::2         5961                      
system.ruby.network.routers2.throttle1.msg_count.Writeback_Data::0         1125                      
system.ruby.network.routers2.throttle1.msg_count.Writeback_Control::0          393                      
system.ruby.network.routers2.throttle1.msg_bytes.Control::0        47696                      
system.ruby.network.routers2.throttle1.msg_bytes.Response_Data::1       485424                      
system.ruby.network.routers2.throttle1.msg_bytes.Response_Control::1        23528                      
system.ruby.network.routers2.throttle1.msg_bytes.Response_Control::2        47688                      
system.ruby.network.routers2.throttle1.msg_bytes.Writeback_Data::0        81000                      
system.ruby.network.routers2.throttle1.msg_bytes.Writeback_Control::0         3144                      
system.ruby.network.routers3.throttle0.link_utilization     0.117626                      
system.ruby.network.routers3.throttle0.msg_count.Request_Control::2           81                      
system.ruby.network.routers3.throttle0.msg_count.Response_Data::1         5141                      
system.ruby.network.routers3.throttle0.msg_count.Response_Control::1         6592                      
system.ruby.network.routers3.throttle0.msg_bytes.Request_Control::2          648                      
system.ruby.network.routers3.throttle0.msg_bytes.Response_Data::1       370152                      
system.ruby.network.routers3.throttle0.msg_bytes.Response_Control::1        52736                      
system.ruby.network.routers3.throttle1.link_utilization     0.048957                      
system.ruby.network.routers3.throttle1.msg_count.Control::0         8082                      
system.ruby.network.routers3.throttle1.msg_count.Response_Data::1           76                      
system.ruby.network.routers3.throttle1.msg_count.Response_Control::1           42                      
system.ruby.network.routers3.throttle1.msg_count.Response_Control::2         7861                      
system.ruby.network.routers3.throttle1.msg_count.Writeback_Data::0          582                      
system.ruby.network.routers3.throttle1.msg_count.Writeback_Control::0          128                      
system.ruby.network.routers3.throttle1.msg_bytes.Control::0        64656                      
system.ruby.network.routers3.throttle1.msg_bytes.Response_Data::1         5472                      
system.ruby.network.routers3.throttle1.msg_bytes.Response_Control::1          336                      
system.ruby.network.routers3.throttle1.msg_bytes.Response_Control::2        62888                      
system.ruby.network.routers3.throttle1.msg_bytes.Writeback_Data::0        41904                      
system.ruby.network.routers3.throttle1.msg_bytes.Writeback_Control::0         1024                      
system.ruby.network.routers4.throttle0.link_utilization     0.291224                      
system.ruby.network.routers4.throttle0.msg_count.Control::0        14044                      
system.ruby.network.routers4.throttle0.msg_count.Response_Data::1         9703                      
system.ruby.network.routers4.throttle0.msg_count.Response_Control::2        13822                      
system.ruby.network.routers4.throttle0.msg_count.Writeback_Data::0         1707                      
system.ruby.network.routers4.throttle0.msg_count.Writeback_Control::0          521                      
system.ruby.network.routers4.throttle0.msg_bytes.Control::0       112352                      
system.ruby.network.routers4.throttle0.msg_bytes.Response_Data::1       698616                      
system.ruby.network.routers4.throttle0.msg_bytes.Response_Control::2       110576                      
system.ruby.network.routers4.throttle0.msg_bytes.Writeback_Data::0       122904                      
system.ruby.network.routers4.throttle0.msg_bytes.Writeback_Control::0         4168                      
system.ruby.network.routers4.throttle1.link_utilization     0.192695                      
system.ruby.network.routers4.throttle1.msg_count.Control::0         6299                      
system.ruby.network.routers4.throttle1.msg_count.Request_Control::2         6397                      
system.ruby.network.routers4.throttle1.msg_count.Response_Data::1         7647                      
system.ruby.network.routers4.throttle1.msg_count.Response_Control::1         5211                      
system.ruby.network.routers4.throttle1.msg_bytes.Control::0        50392                      
system.ruby.network.routers4.throttle1.msg_bytes.Request_Control::2        51176                      
system.ruby.network.routers4.throttle1.msg_bytes.Response_Data::1       550584                      
system.ruby.network.routers4.throttle1.msg_bytes.Response_Control::1        41688                      
system.ruby.network.routers5.throttle0.link_utilization     0.013995                      
system.ruby.network.routers5.throttle0.msg_count.Control::0         6299                      
system.ruby.network.routers5.throttle0.msg_bytes.Control::0        50392                      
system.ruby.network.routers5.throttle1.link_utilization     0.125955                      
system.ruby.network.routers5.throttle1.msg_count.Response_Data::1         6299                      
system.ruby.network.routers5.throttle1.msg_bytes.Response_Data::1       453528                      
system.ruby.network.routers6.throttle0.link_utilization            0                      
system.ruby.network.routers6.throttle1.link_utilization            0                      
system.ruby.network.routers6.throttle2.link_utilization     0.135969                      
system.ruby.network.routers6.throttle2.msg_count.Request_Control::2         6316                      
system.ruby.network.routers6.throttle2.msg_count.Response_Data::1         5920                      
system.ruby.network.routers6.throttle2.msg_count.Response_Control::1         1602                      
system.ruby.network.routers6.throttle2.msg_bytes.Request_Control::2        50528                      
system.ruby.network.routers6.throttle2.msg_bytes.Response_Data::1       426240                      
system.ruby.network.routers6.throttle2.msg_bytes.Response_Control::1        12816                      
system.ruby.network.routers6.throttle3.link_utilization     0.117626                      
system.ruby.network.routers6.throttle3.msg_count.Request_Control::2           81                      
system.ruby.network.routers6.throttle3.msg_count.Response_Data::1         5141                      
system.ruby.network.routers6.throttle3.msg_count.Response_Control::1         6592                      
system.ruby.network.routers6.throttle3.msg_bytes.Request_Control::2          648                      
system.ruby.network.routers6.throttle3.msg_bytes.Response_Data::1       370152                      
system.ruby.network.routers6.throttle3.msg_bytes.Response_Control::1        52736                      
system.ruby.network.routers6.throttle4.link_utilization     0.291224                      
system.ruby.network.routers6.throttle4.msg_count.Control::0        14044                      
system.ruby.network.routers6.throttle4.msg_count.Response_Data::1         9703                      
system.ruby.network.routers6.throttle4.msg_count.Response_Control::2        13822                      
system.ruby.network.routers6.throttle4.msg_count.Writeback_Data::0         1707                      
system.ruby.network.routers6.throttle4.msg_count.Writeback_Control::0          521                      
system.ruby.network.routers6.throttle4.msg_bytes.Control::0       112352                      
system.ruby.network.routers6.throttle4.msg_bytes.Response_Data::1       698616                      
system.ruby.network.routers6.throttle4.msg_bytes.Response_Control::2       110576                      
system.ruby.network.routers6.throttle4.msg_bytes.Writeback_Data::0       122904                      
system.ruby.network.routers6.throttle4.msg_bytes.Writeback_Control::0         4168                      
system.ruby.network.routers6.throttle5.link_utilization     0.013995                      
system.ruby.network.routers6.throttle5.msg_count.Control::0         6299                      
system.ruby.network.routers6.throttle5.msg_bytes.Control::0        50392                      
system.ruby.delayVCHist.vnet_0::bucket_size            4                       # delay histogram for vnet_0
system.ruby.delayVCHist.vnet_0::max_bucket           39                       # delay histogram for vnet_0
system.ruby.delayVCHist.vnet_0::samples         30094                       # delay histogram for vnet_0
system.ruby.delayVCHist.vnet_0::mean         0.457300                       # delay histogram for vnet_0
system.ruby.delayVCHist.vnet_0::stdev        1.858578                       # delay histogram for vnet_0
system.ruby.delayVCHist.vnet_0           |       28384     94.32%     94.32% |           1      0.00%     94.32% |        1706      5.67%     99.99% |           2      0.01%    100.00% |           0      0.00%    100.00% |           1      0.00%    100.00% |           0      0.00%    100.00% |           0      0.00%    100.00% |           0      0.00%    100.00% |           0      0.00%    100.00% # delay histogram for vnet_0
system.ruby.delayVCHist.vnet_0::total           30094                       # delay histogram for vnet_0
system.ruby.delayVCHist.vnet_1::bucket_size            1                       # delay histogram for vnet_1
system.ruby.delayVCHist.vnet_1::max_bucket            9                       # delay histogram for vnet_1
system.ruby.delayVCHist.vnet_1::samples         58007                       # delay histogram for vnet_1
system.ruby.delayVCHist.vnet_1::mean         0.469461                       # delay histogram for vnet_1
system.ruby.delayVCHist.vnet_1::stdev        1.880253                       # delay histogram for vnet_1
system.ruby.delayVCHist.vnet_1           |       54603     94.13%     94.13% |           0      0.00%     94.13% |           0      0.00%     94.13% |           0      0.00%     94.13% |           0      0.00%     94.13% |           0      0.00%     94.13% |           0      0.00%     94.13% |           0      0.00%     94.13% |        3404      5.87%    100.00% |           0      0.00%    100.00% # delay histogram for vnet_1
system.ruby.delayVCHist.vnet_1::total           58007                       # delay histogram for vnet_1
system.ruby.delayVCHist.vnet_2::bucket_size            1                       # delay histogram for vnet_2
system.ruby.delayVCHist.vnet_2::max_bucket            9                       # delay histogram for vnet_2
system.ruby.delayVCHist.vnet_2::samples          7556                       # delay histogram for vnet_2
system.ruby.delayVCHist.vnet_2::mean         0.341451                       # delay histogram for vnet_2
system.ruby.delayVCHist.vnet_2::stdev        1.261299                       # delay histogram for vnet_2
system.ruby.delayVCHist.vnet_2           |        7040     93.17%     93.17% |           0      0.00%     93.17% |           0      0.00%     93.17% |           0      0.00%     93.17% |           0      0.00%     93.17% |         516      6.83%    100.00% |           0      0.00%    100.00% |           0      0.00%    100.00% |           0      0.00%    100.00% |           0      0.00%    100.00% # delay histogram for vnet_2
system.ruby.delayVCHist.vnet_2::total            7556                       # delay histogram for vnet_2
system.ruby.LD.latency_hist::bucket_size          128                      
system.ruby.LD.latency_hist::max_bucket          1279                      
system.ruby.LD.latency_hist::samples          2543494                      
system.ruby.LD.latency_hist::mean            1.102619                      
system.ruby.LD.latency_hist::gmean           1.016038                      
system.ruby.LD.latency_hist::stdev           2.575211                      
system.ruby.LD.latency_hist              |     2543344     99.99%     99.99% |         140      0.01%    100.00% |           0      0.00%    100.00% |           1      0.00%    100.00% |           6      0.00%    100.00% |           3      0.00%    100.00% |           0      0.00%    100.00% |           0      0.00%    100.00% |           0      0.00%    100.00% |           0      0.00%    100.00%
system.ruby.LD.latency_hist::total            2543494                      
system.ruby.LD.hit_latency_hist::bucket_size          128                      
system.ruby.LD.hit_latency_hist::max_bucket         1279                      
system.ruby.LD.hit_latency_hist::samples      2543494                      
system.ruby.LD.hit_latency_hist::mean        1.102619                      
system.ruby.LD.hit_latency_hist::gmean       1.016038                      
system.ruby.LD.hit_latency_hist::stdev       2.575211                      
system.ruby.LD.hit_latency_hist          |     2543344     99.99%     99.99% |         140      0.01%    100.00% |           0      0.00%    100.00% |           1      0.00%    100.00% |           6      0.00%    100.00% |           3      0.00%    100.00% |           0      0.00%    100.00% |           0      0.00%    100.00% |           0      0.00%    100.00% |           0      0.00%    100.00%
system.ruby.LD.hit_latency_hist::total        2543494                      
system.ruby.ST.latency_hist::bucket_size          128                      
system.ruby.ST.latency_hist::max_bucket          1279                      
system.ruby.ST.latency_hist::samples          1251021                      
system.ruby.ST.latency_hist::mean            1.540981                      
system.ruby.ST.latency_hist::gmean           1.025960                      
system.ruby.ST.latency_hist::stdev           9.196085                      
system.ruby.ST.latency_hist              |     1249936     99.91%     99.91% |         968      0.08%     99.99% |           9      0.00%     99.99% |          14      0.00%     99.99% |          60      0.00%    100.00% |          34      0.00%    100.00% |           0      0.00%    100.00% |           0      0.00%    100.00% |           0      0.00%    100.00% |           0      0.00%    100.00%
system.ruby.ST.latency_hist::total            1251021                      
system.ruby.ST.hit_latency_hist::bucket_size          128                      
system.ruby.ST.hit_latency_hist::max_bucket         1279                      
system.ruby.ST.hit_latency_hist::samples      1251021                      
system.ruby.ST.hit_latency_hist::mean        1.540981                      
system.ruby.ST.hit_latency_hist::gmean       1.025960                      
system.ruby.ST.hit_latency_hist::stdev       9.196085                      
system.ruby.ST.hit_latency_hist          |     1249936     99.91%     99.91% |         968      0.08%     99.99% |           9      0.00%     99.99% |          14      0.00%     99.99% |          60      0.00%    100.00% |          34      0.00%    100.00% |           0      0.00%    100.00% |           0      0.00%    100.00% |           0      0.00%    100.00% |           0      0.00%    100.00%
system.ruby.ST.hit_latency_hist::total        1251021                      
system.ruby.IFETCH.latency_hist::bucket_size          128                      
system.ruby.IFETCH.latency_hist::max_bucket         1279                      
system.ruby.IFETCH.latency_hist::samples     10338588                      
system.ruby.IFETCH.latency_hist::mean        1.015395                      
system.ruby.IFETCH.latency_hist::gmean       1.000738                      
system.ruby.IFETCH.latency_hist::stdev       1.523333                      
system.ruby.IFETCH.latency_hist          |    10338322    100.00%    100.00% |         249      0.00%    100.00% |           0      0.00%    100.00% |           1      0.00%    100.00% |          11      0.00%    100.00% |           5      0.00%    100.00% |           0      0.00%    100.00% |           0      0.00%    100.00% |           0      0.00%    100.00% |           0      0.00%    100.00%
system.ruby.IFETCH.latency_hist::total       10338588                      
system.ruby.IFETCH.hit_latency_hist::bucket_size          128                      
system.ruby.IFETCH.hit_latency_hist::max_bucket         1279                      
system.ruby.IFETCH.hit_latency_hist::samples     10338588                      
system.ruby.IFETCH.hit_latency_hist::mean     1.015395                      
system.ruby.IFETCH.hit_latency_hist::gmean     1.000738                      
system.ruby.IFETCH.hit_latency_hist::stdev     1.523333                      
system.ruby.IFETCH.hit_latency_hist      |    10338322    100.00%    100.00% |         249      0.00%    100.00% |           0      0.00%    100.00% |           1      0.00%    100.00% |          11      0.00%    100.00% |           5      0.00%    100.00% |           0      0.00%    100.00% |           0      0.00%    100.00% |           0      0.00%    100.00% |           0      0.00%    100.00%
system.ruby.IFETCH.hit_latency_hist::total     10338588                      
system.ruby.RMW_Read.latency_hist::bucket_size           16                      
system.ruby.RMW_Read.latency_hist::max_bucket          159                      
system.ruby.RMW_Read.latency_hist::samples          679                      
system.ruby.RMW_Read.latency_hist::mean      2.321060                      
system.ruby.RMW_Read.latency_hist::gmean     1.162494                      
system.ruby.RMW_Read.latency_hist::stdev     7.634343                      
system.ruby.RMW_Read.latency_hist        |         652     96.02%     96.02% |          20      2.95%     98.97% |           6      0.88%     99.85% |           0      0.00%     99.85% |           0      0.00%     99.85% |           0      0.00%     99.85% |           0      0.00%     99.85% |           0      0.00%     99.85% |           1      0.15%    100.00% |           0      0.00%    100.00%
system.ruby.RMW_Read.latency_hist::total          679                      
system.ruby.RMW_Read.hit_latency_hist::bucket_size           16                      
system.ruby.RMW_Read.hit_latency_hist::max_bucket          159                      
system.ruby.RMW_Read.hit_latency_hist::samples          679                      
system.ruby.RMW_Read.hit_latency_hist::mean     2.321060                      
system.ruby.RMW_Read.hit_latency_hist::gmean     1.162494                      
system.ruby.RMW_Read.hit_latency_hist::stdev     7.634343                      
system.ruby.RMW_Read.hit_latency_hist    |         652     96.02%     96.02% |          20      2.95%     98.97% |           6      0.88%     99.85% |           0      0.00%     99.85% |           0      0.00%     99.85% |           0      0.00%     99.85% |           0      0.00%     99.85% |           0      0.00%     99.85% |           1      0.15%    100.00% |           0      0.00%    100.00%
system.ruby.RMW_Read.hit_latency_hist::total          679                      
system.ruby.Locked_RMW_Read.latency_hist::bucket_size           16                      
system.ruby.Locked_RMW_Read.latency_hist::max_bucket          159                      
system.ruby.Locked_RMW_Read.latency_hist::samples       129966                      
system.ruby.Locked_RMW_Read.latency_hist::mean     1.003639                      
system.ruby.Locked_RMW_Read.latency_hist::gmean     1.000368                      
system.ruby.Locked_RMW_Read.latency_hist::stdev     0.541846                      
system.ruby.Locked_RMW_Read.latency_hist |      129958     99.99%     99.99% |           3      0.00%    100.00% |           3      0.00%    100.00% |           0      0.00%    100.00% |           0      0.00%    100.00% |           0      0.00%    100.00% |           0      0.00%    100.00% |           1      0.00%    100.00% |           1      0.00%    100.00% |           0      0.00%    100.00%
system.ruby.Locked_RMW_Read.latency_hist::total       129966                      
system.ruby.Locked_RMW_Read.hit_latency_hist::bucket_size           16                      
system.ruby.Locked_RMW_Read.hit_latency_hist::max_bucket          159                      
system.ruby.Locked_RMW_Read.hit_latency_hist::samples       129966                      
system.ruby.Locked_RMW_Read.hit_latency_hist::mean     1.003639                      
system.ruby.Locked_RMW_Read.hit_latency_hist::gmean     1.000368                      
system.ruby.Locked_RMW_Read.hit_latency_hist::stdev     0.541846                      
system.ruby.Locked_RMW_Read.hit_latency_hist |      129958     99.99%     99.99% |           3      0.00%    100.00% |           3      0.00%    100.00% |           0      0.00%    100.00% |           0      0.00%    100.00% |           0      0.00%    100.00% |           0      0.00%    100.00% |           1      0.00%    100.00% |           1      0.00%    100.00% |           0      0.00%    100.00%
system.ruby.Locked_RMW_Read.hit_latency_hist::total       129966                      
system.ruby.Locked_RMW_Write.latency_hist::bucket_size            1                      
system.ruby.Locked_RMW_Write.latency_hist::max_bucket            9                      
system.ruby.Locked_RMW_Write.latency_hist::samples       129966                      
system.ruby.Locked_RMW_Write.latency_hist::mean            1                      
system.ruby.Locked_RMW_Write.latency_hist::gmean            1                      
[...]
system.ruby.L0Cache_Controller.Load::total      2543494                      
system.ruby.L0Cache_Controller.Ifetch    |     7886399     76.28%     76.28% |     2452189     23.72%    100.00%
system.ruby.L0Cache_Controller.Ifetch::total     10338588                      
system.ruby.L0Cache_Controller.Store     |     1217003     80.51%     80.51% |      294629     19.49%    100.00%
system.ruby.L0Cache_Controller.Store::total      1511632                      
system.ruby.L0Cache_Controller.Inv       |         765     66.01%     66.01% |         394     33.99%    100.00%
system.ruby.L0Cache_Controller.Inv::total         1159                      
system.ruby.L0Cache_Controller.L0_Replacement |        5859     24.35%     24.35% |       18200     75.65%    100.00%
system.ruby.L0Cache_Controller.L0_Replacement::total        24059                      
system.ruby.L0Cache_Controller.Data      |          68      0.64%      0.64% |       10544     99.36%    100.00%
system.ruby.L0Cache_Controller.Data::total        10612                      
system.ruby.L0Cache_Controller.Data_Exclusive |        7256     39.36%     39.36% |       11181     60.64%    100.00%
system.ruby.L0Cache_Controller.Data_Exclusive::total        18437                      
system.ruby.L0Cache_Controller.NP.Load   |         633      3.33%      3.33% |       18386     96.67%    100.00%
system.ruby.L0Cache_Controller.NP.Load::total        19019                      
system.ruby.L0Cache_Controller.NP.Ifetch |        2170     97.14%     97.14% |          64      2.86%    100.00%
system.ruby.L0Cache_Controller.NP.Ifetch::total         2234                      
system.ruby.L0Cache_Controller.NP.Store  |        4479     92.96%     92.96% |         339      7.04%    100.00%
system.ruby.L0Cache_Controller.NP.Store::total         4818                      
system.ruby.L0Cache_Controller.NP.Inv    |           0      0.00%      0.00% |         326    100.00%    100.00%
system.ruby.L0Cache_Controller.NP.Inv::total          326                      
system.ruby.L0Cache_Controller.S.Load    |      409016     52.19%     52.19% |      374692     47.81%    100.00%
system.ruby.L0Cache_Controller.S.Load::total       783708                      
system.ruby.L0Cache_Controller.S.Ifetch  |         320     18.01%     18.01% |        1457     81.99%    100.00%
system.ruby.L0Cache_Controller.S.Ifetch::total         1777                      
system.ruby.L0Cache_Controller.S.Store   |          42      1.41%      1.41% |        2936     98.59%    100.00%
system.ruby.L0Cache_Controller.S.Store::total         2978                      
system.ruby.L0Cache_Controller.S.Inv     |           7     31.82%     31.82% |          15     68.18%    100.00%
system.ruby.L0Cache_Controller.S.Inv::total           22                      
system.ruby.L0Cache_Controller.S.L0_Replacement |          14      0.18%      0.18% |        7585     99.82%    100.00%
system.ruby.L0Cache_Controller.S.L0_Replacement::total         7599                      
system.ruby.L0Cache_Controller.E.Load    |       79353     40.25%     40.25% |      117815     59.75%    100.00%
system.ruby.L0Cache_Controller.E.Load::total       197168                      
system.ruby.L0Cache_Controller.E.Ifetch  |     7883909     76.29%     76.29% |     2450668     23.71%    100.00%
system.ruby.L0Cache_Controller.E.Ifetch::total     10334577                      
system.ruby.L0Cache_Controller.E.Store   |         215      4.73%      4.73% |        4328     95.27%    100.00%
system.ruby.L0Cache_Controller.E.Store::total         4543                      
system.ruby.L0Cache_Controller.E.Inv     |         290     88.41%     88.41% |          38     11.59%    100.00%
system.ruby.L0Cache_Controller.E.Inv::total          328                      
system.ruby.L0Cache_Controller.E.L0_Replacement |        1700     32.63%     32.63% |        3510     67.37%    100.00%
system.ruby.L0Cache_Controller.E.L0_Replacement::total         5210                      
system.ruby.L0Cache_Controller.M.Load    |     1277961     82.79%     82.79% |      265638     17.21%    100.00%
system.ruby.L0Cache_Controller.M.Load::total      1543599                      
system.ruby.L0Cache_Controller.M.Store   |     1212267     80.86%     80.86% |      287026     19.14%    100.00%
system.ruby.L0Cache_Controller.M.Store::total      1499293                      
system.ruby.L0Cache_Controller.M.Inv     |         468     96.89%     96.89% |          15      3.11%    100.00%
system.ruby.L0Cache_Controller.M.Inv::total          483                      
system.ruby.L0Cache_Controller.M.L0_Replacement |        4145     36.84%     36.84% |        7105     63.16%    100.00%
system.ruby.L0Cache_Controller.M.L0_Replacement::total        11250                      
system.ruby.L0Cache_Controller.IS.Data   |          68      0.64%      0.64% |       10544     99.36%    100.00%
system.ruby.L0Cache_Controller.IS.Data::total        10612                      
system.ruby.L0Cache_Controller.IS.Data_Exclusive |        2735     25.70%     25.70% |        7906     74.30%    100.00%
system.ruby.L0Cache_Controller.IS.Data_Exclusive::total        10641                      
system.ruby.L0Cache_Controller.IM.Data_Exclusive |        4479     92.96%     92.96% |         339      7.04%    100.00%
system.ruby.L0Cache_Controller.IM.Data_Exclusive::total         4818                      
system.ruby.L0Cache_Controller.SM.Data_Exclusive |          42      1.41%      1.41% |        2936     98.59%    100.00%
system.ruby.L0Cache_Controller.SM.Data_Exclusive::total         2978                      
system.ruby.L1Cache_Controller.Load      |        2803     13.19%     13.19% |       18450     86.81%    100.00%
system.ruby.L1Cache_Controller.Load::total        21253                      
system.ruby.L1Cache_Controller.Store     |        4521     57.99%     57.99% |        3275     42.01%    100.00%
system.ruby.L1Cache_Controller.Store::total         7796                      
system.ruby.L1Cache_Controller.WriteBack |        5845     35.51%     35.51% |       10615     64.49%    100.00%
system.ruby.L1Cache_Controller.WriteBack::total        16460                      
system.ruby.L1Cache_Controller.L0_DataAck |         468     96.89%     96.89% |          15      3.11%    100.00%
system.ruby.L1Cache_Controller.L0_DataAck::total          483                      
system.ruby.L1Cache_Controller.Inv       |        2941     98.59%     98.59% |          42      1.41%    100.00%
system.ruby.L1Cache_Controller.Inv::total         2983                      
system.ruby.L1Cache_Controller.L0_Invalidate_Own |         558     43.39%     43.39% |         728     56.61%    100.00%
system.ruby.L1Cache_Controller.L0_Invalidate_Own::total         1286                      
system.ruby.L1Cache_Controller.L0_Invalidate_Else |         972     94.19%     94.19% |          60      5.81%    100.00%
system.ruby.L1Cache_Controller.L0_Invalidate_Else::total         1032                      
system.ruby.L1Cache_Controller.L1_Replacement |        1683     61.78%     61.78% |        1041     38.22%    100.00%
system.ruby.L1Cache_Controller.L1_Replacement::total         2724                      
system.ruby.L1Cache_Controller.Fwd_GETX  |           8     80.00%     80.00% |           2     20.00%    100.00%
system.ruby.L1Cache_Controller.Fwd_GETX::total           10                      
system.ruby.L1Cache_Controller.Fwd_GETS  |        3367     98.91%     98.91% |          37      1.09%    100.00%
system.ruby.L1Cache_Controller.Fwd_GETS::total         3404                      
system.ruby.L1Cache_Controller.Data_Exclusive |        1557     53.25%     53.25% |        1367     46.75%    100.00%
system.ruby.L1Cache_Controller.Data_Exclusive::total         2924                      
system.ruby.L1Cache_Controller.DataS_fromL1 |          37      1.09%      1.09% |        3367     98.91%    100.00%
system.ruby.L1Cache_Controller.DataS_fromL1::total         3404                      
system.ruby.L1Cache_Controller.Data_all_Acks |        4326     91.40%     91.40% |         407      8.60%    100.00%
system.ruby.L1Cache_Controller.Data_all_Acks::total         4733                      
system.ruby.L1Cache_Controller.L0_Ack    |         297     43.93%     43.93% |         379     56.07%    100.00%
system.ruby.L1Cache_Controller.L0_Ack::total          676                      
system.ruby.L1Cache_Controller.Ack       |          42      1.41%      1.41% |        2941     98.59%    100.00%
system.ruby.L1Cache_Controller.Ack::total         2983                      
system.ruby.L1Cache_Controller.Ack_all   |          42      1.41%      1.41% |        2941     98.59%    100.00%
system.ruby.L1Cache_Controller.Ack_all::total         2983                      
system.ruby.L1Cache_Controller.WB_Ack    |        1518     68.13%     68.13% |         710     31.87%    100.00%
system.ruby.L1Cache_Controller.WB_Ack::total         2228                      
system.ruby.L1Cache_Controller.NP.Load   |        1587     24.26%     24.26% |        4955     75.74%    100.00%
system.ruby.L1Cache_Controller.NP.Load::total         6542                      
system.ruby.L1Cache_Controller.NP.Store  |        4325     95.88%     95.88% |         186      4.12%    100.00%
system.ruby.L1Cache_Controller.NP.Store::total         4511                      
system.ruby.L1Cache_Controller.NP.Inv    |          92     95.83%     95.83% |           4      4.17%    100.00%
system.ruby.L1Cache_Controller.NP.Inv::total           96                      
system.ruby.L1Cache_Controller.I.Load    |           8    100.00%    100.00% |           0      0.00%    100.00%
system.ruby.L1Cache_Controller.I.Load::total            8                      
system.ruby.L1Cache_Controller.S.Load    |           5      0.07%      0.07% |        6951     99.93%    100.00%
system.ruby.L1Cache_Controller.S.Load::total         6956                      
system.ruby.L1Cache_Controller.S.Store   |          42      1.41%      1.41% |        2939     98.59%    100.00%
system.ruby.L1Cache_Controller.S.Store::total         2981                      
system.ruby.L1Cache_Controller.S.L0_Invalidate_Own |           0      0.00%      0.00% |         329    100.00%    100.00%
system.ruby.L1Cache_Controller.S.L0_Invalidate_Own::total          329                      
system.ruby.L1Cache_Controller.S.L0_Invalidate_Else |           7     36.84%     36.84% |          12     63.16%    100.00%
system.ruby.L1Cache_Controller.S.L0_Invalidate_Else::total           19                      
system.ruby.L1Cache_Controller.SS.Load   |          25     83.33%     83.33% |           5     16.67%    100.00%
system.ruby.L1Cache_Controller.SS.Load::total           30                      
system.ruby.L1Cache_Controller.SS.Store  |           0      0.00%      0.00% |           2    100.00%    100.00%
system.ruby.L1Cache_Controller.SS.Store::total            2                      
system.ruby.L1Cache_Controller.SS.Inv    |        2849     98.68%     98.68% |          38      1.32%    100.00%
system.ruby.L1Cache_Controller.SS.Inv::total         2887                      
system.ruby.L1Cache_Controller.SS.L1_Replacement |         165     33.27%     33.27% |         331     66.73%    100.00%
system.ruby.L1Cache_Controller.SS.L1_Replacement::total          496                      
system.ruby.L1Cache_Controller.E.WriteBack |         885     40.21%     40.21% |        1316     59.79%    100.00%
system.ruby.L1Cache_Controller.E.WriteBack::total         2201                      
system.ruby.L1Cache_Controller.E.L0_Invalidate_Own |         238     88.48%     88.48% |          31     11.52%    100.00%
system.ruby.L1Cache_Controller.E.L0_Invalidate_Own::total          269                      
system.ruby.L1Cache_Controller.E.L0_Invalidate_Else |           8     80.00%     80.00% |           2     20.00%    100.00%
system.ruby.L1Cache_Controller.E.L0_Invalidate_Else::total           10                      
system.ruby.L1Cache_Controller.EE.L1_Replacement |         236     88.39%     88.39% |          31     11.61%    100.00%
system.ruby.L1Cache_Controller.EE.L1_Replacement::total          267                      
system.ruby.L1Cache_Controller.EE.Fwd_GETS |           8     80.00%     80.00% |           2     20.00%    100.00%
system.ruby.L1Cache_Controller.EE.Fwd_GETS::total           10                      
system.ruby.L1Cache_Controller.M.WriteBack |        4960     34.79%     34.79% |        9299     65.21%    100.00%
system.ruby.L1Cache_Controller.M.WriteBack::total        14259                      
system.ruby.L1Cache_Controller.M.L0_Invalidate_Own |          41     91.11%     91.11% |           4      8.89%    100.00%
system.ruby.L1Cache_Controller.M.L0_Invalidate_Own::total           45                      
system.ruby.L1Cache_Controller.M.L0_Invalidate_Else |         471     96.71%     96.71% |          16      3.29%    100.00%
system.ruby.L1Cache_Controller.M.L0_Invalidate_Else::total          487                      
system.ruby.L1Cache_Controller.MM.Load   |        1178     15.26%     15.26% |        6539     84.74%    100.00%
system.ruby.L1Cache_Controller.MM.Load::total         7717                      
system.ruby.L1Cache_Controller.MM.Store  |         154     50.99%     50.99% |         148     49.01%    100.00%
system.ruby.L1Cache_Controller.MM.Store::total          302                      
system.ruby.L1Cache_Controller.MM.L1_Replacement |        1282     65.37%     65.37% |         679     34.63%    100.00%
system.ruby.L1Cache_Controller.MM.L1_Replacement::total         1961                      
system.ruby.L1Cache_Controller.MM.Fwd_GETX |           8     80.00%     80.00% |           2     20.00%    100.00%
system.ruby.L1Cache_Controller.MM.Fwd_GETX::total           10                      
system.ruby.L1Cache_Controller.MM.Fwd_GETS |        3359     98.97%     98.97% |          35      1.03%    100.00%
system.ruby.L1Cache_Controller.MM.Fwd_GETS::total         3394                      
system.ruby.L1Cache_Controller.IS.Data_Exclusive |        1557     53.25%     53.25% |        1367     46.75%    100.00%
system.ruby.L1Cache_Controller.IS.Data_Exclusive::total         2924                      
system.ruby.L1Cache_Controller.IS.DataS_fromL1 |          37      1.09%      1.09% |        3367     98.91%    100.00%
system.ruby.L1Cache_Controller.IS.DataS_fromL1::total         3404                      
system.ruby.L1Cache_Controller.IS.Data_all_Acks |           1      0.45%      0.45% |         221     99.55%    100.00%
system.ruby.L1Cache_Controller.IS.Data_all_Acks::total          222                      
system.ruby.L1Cache_Controller.IM.Data_all_Acks |        4325     95.88%     95.88% |         186      4.12%    100.00%
system.ruby.L1Cache_Controller.IM.Data_all_Acks::total         4511                      
system.ruby.L1Cache_Controller.SM.Ack    |          42      1.41%      1.41% |        2941     98.59%    100.00%
system.ruby.L1Cache_Controller.SM.Ack::total         2983                      
system.ruby.L1Cache_Controller.SM.Ack_all |          42      1.41%      1.41% |        2941     98.59%    100.00%
system.ruby.L1Cache_Controller.SM.Ack_all::total         2983                      
system.ruby.L1Cache_Controller.M_I.WB_Ack |        1518     68.13%     68.13% |         710     31.87%    100.00%
system.ruby.L1Cache_Controller.M_I.WB_Ack::total         2228                      
system.ruby.L1Cache_Controller.S_IL0.L0_Invalidate_Own |           0      0.00%      0.00% |         329    100.00%    100.00%
system.ruby.L1Cache_Controller.S_IL0.L0_Invalidate_Own::total          329                      
system.ruby.L1Cache_Controller.S_IL0.L0_Invalidate_Else |           7     36.84%     36.84% |          12     63.16%    100.00%
system.ruby.L1Cache_Controller.S_IL0.L0_Invalidate_Else::total           19                      
system.ruby.L1Cache_Controller.S_IL0.L0_Ack |           7      2.01%      2.01% |         341     97.99%    100.00%
system.ruby.L1Cache_Controller.S_IL0.L0_Ack::total          348                      
system.ruby.L1Cache_Controller.E_IL0.L0_DataAck |           2    100.00%    100.00% |           0      0.00%    100.00%
system.ruby.L1Cache_Controller.E_IL0.L0_DataAck::total            2                      
system.ruby.L1Cache_Controller.E_IL0.L0_Invalidate_Own |         238     88.48%     88.48% |          31     11.52%    100.00%
system.ruby.L1Cache_Controller.E_IL0.L0_Invalidate_Own::total          269                      
system.ruby.L1Cache_Controller.E_IL0.L0_Invalidate_Else |           8     80.00%     80.00% |           2     20.00%    100.00%
system.ruby.L1Cache_Controller.E_IL0.L0_Invalidate_Else::total           10                      
system.ruby.L1Cache_Controller.E_IL0.L0_Ack |         244     88.09%     88.09% |          33     11.91%    100.00%
system.ruby.L1Cache_Controller.E_IL0.L0_Ack::total          277                      
system.ruby.L1Cache_Controller.M_IL0.L0_DataAck |         466     96.88%     96.88% |          15      3.12%    100.00%
system.ruby.L1Cache_Controller.M_IL0.L0_DataAck::total          481                      
system.ruby.L1Cache_Controller.M_IL0.L0_Invalidate_Own |          41     91.11%     91.11% |           4      8.89%    100.00%
system.ruby.L1Cache_Controller.M_IL0.L0_Invalidate_Own::total           45                      
system.ruby.L1Cache_Controller.M_IL0.L0_Invalidate_Else |         471     96.71%     96.71% |          16      3.29%    100.00%
system.ruby.L1Cache_Controller.M_IL0.L0_Invalidate_Else::total          487                      
system.ruby.L1Cache_Controller.M_IL0.L0_Ack |          46     90.20%     90.20% |           5      9.80%    100.00%
system.ruby.L1Cache_Controller.M_IL0.L0_Ack::total           51                      
system.ruby.L2Cache_Controller.L1_GETS           6551      0.00%      0.00%
system.ruby.L2Cache_Controller.L1_GETX           4511      0.00%      0.00%
system.ruby.L2Cache_Controller.L1_UPGRADE         2983      0.00%      0.00%
system.ruby.L2Cache_Controller.L1_PUTX           2228      0.00%      0.00%
system.ruby.L2Cache_Controller.Mem_Data          6299      0.00%      0.00%
system.ruby.L2Cache_Controller.WB_Data           3399      0.00%      0.00%
system.ruby.L2Cache_Controller.WB_Data_clean            5      0.00%      0.00%
system.ruby.L2Cache_Controller.Unblock           3404      0.00%      0.00%
system.ruby.L2Cache_Controller.Exclusive_Unblock        10418      0.00%      0.00%
system.ruby.L2Cache_Controller.NP.L1_GETS         1825      0.00%      0.00%
system.ruby.L2Cache_Controller.NP.L1_GETX         4474      0.00%      0.00%
system.ruby.L2Cache_Controller.SS.L1_GETS          222      0.00%      0.00%
system.ruby.L2Cache_Controller.SS.L1_UPGRADE         2983      0.00%      0.00%
system.ruby.L2Cache_Controller.M.L1_GETS         1099      0.00%      0.00%
system.ruby.L2Cache_Controller.M.L1_GETX           27      0.00%      0.00%
system.ruby.L2Cache_Controller.MT.L1_GETS         3404      0.00%      0.00%
system.ruby.L2Cache_Controller.MT.L1_GETX           10      0.00%      0.00%
system.ruby.L2Cache_Controller.MT.L1_PUTX         2228      0.00%      0.00%
system.ruby.L2Cache_Controller.ISS.Mem_Data         1825      0.00%      0.00%
system.ruby.L2Cache_Controller.IM.Mem_Data         4474      0.00%      0.00%
system.ruby.L2Cache_Controller.SS_MB.L1_GETS            1      0.00%      0.00%
system.ruby.L2Cache_Controller.SS_MB.Exclusive_Unblock         2983      0.00%      0.00%
system.ruby.L2Cache_Controller.MT_MB.Exclusive_Unblock         7435      0.00%      0.00%
system.ruby.L2Cache_Controller.MT_IIB.WB_Data         3399      0.00%      0.00%
system.ruby.L2Cache_Controller.MT_IIB.WB_Data_clean            5      0.00%      0.00%
system.ruby.L2Cache_Controller.MT_SB.Unblock         3404      0.00%      0.00%

---------- End Simulation Statistics   ----------
