
---------- Begin Simulation Statistics ----------
sim_seconds                                  0.810804                       # Number of seconds simulated
sim_ticks                                810803613000                       # Number of ticks simulated
final_tick                               810803613000                       # Number of ticks from beginning of simulation (restored from checkpoints and never reset)
sim_freq                                 1000000000000                       # Frequency of simulated ticks
host_inst_rate                                 149381                       # Simulator instruction rate (inst/s)
host_op_rate                                   405475                       # Simulator op (including micro ops) rate (op/s)
host_tick_rate                              247994617                       # Simulator tick rate (ticks/s)
host_mem_usage                                 979764                       # Number of bytes of host memory used
host_seconds                                  3269.44                       # Real time elapsed on the host
sim_insts                                   488391946                       # Number of instructions simulated
sim_ops                                    1325675998                       # Number of ops (including micro ops) simulated
system.voltage_domain.voltage                       1                       # Voltage in Volts
system.clk_domain.clock                          1000                       # Clock period in ticks
system.mem_ctrls.bytes_read::ruby.dir_cntrl0     47193472                       # Number of bytes read from this memory
system.mem_ctrls.bytes_read::total           47193472                       # Number of bytes read from this memory
system.mem_ctrls.bytes_written::ruby.dir_cntrl0     22563840                       # Number of bytes written to this memory
system.mem_ctrls.bytes_written::total        22563840                       # Number of bytes written to this memory
system.mem_ctrls.num_reads::ruby.dir_cntrl0       737398                       # Number of read requests responded to by this memory
system.mem_ctrls.num_reads::total              737398                       # Number of read requests responded to by this memory
system.mem_ctrls.num_writes::ruby.dir_cntrl0       352560                       # Number of write requests responded to by this memory
system.mem_ctrls.num_writes::total             352560                       # Number of write requests responded to by this memory
system.mem_ctrls.bw_read::ruby.dir_cntrl0     58205799                       # Total read bandwidth from this memory (bytes/s)
system.mem_ctrls.bw_read::total              58205799                       # Total read bandwidth from this memory (bytes/s)
system.mem_ctrls.bw_write::ruby.dir_cntrl0     27828983                       # Write bandwidth from this memory (bytes/s)
system.mem_ctrls.bw_write::total             27828983                       # Write bandwidth from this memory (bytes/s)
system.mem_ctrls.bw_total::ruby.dir_cntrl0     86034782                       # Total bandwidth to/from this memory (bytes/s)
system.mem_ctrls.bw_total::total             86034782                       # Total bandwidth to/from this memory (bytes/s)
system.mem_ctrls.readReqs                      737398                       # Number of read requests accepted
system.mem_ctrls.writeReqs                     352560                       # Number of write requests accepted
system.mem_ctrls.readBursts                    737398                       # Number of DRAM read bursts, including those serviced by the write queue
system.mem_ctrls.writeBursts                   352560                       # Number of DRAM write bursts, including those merged in the write queue
system.mem_ctrls.bytesReadDRAM               47193088                       # Total number of bytes read from DRAM
system.mem_ctrls.bytesReadWrQ                     384                       # Total number of bytes read from write queue
system.mem_ctrls.bytesWritten                22561792                       # Total number of bytes written to DRAM
system.mem_ctrls.bytesReadSys                47193472                       # Total read bytes from the system interface side
system.mem_ctrls.bytesWrittenSys             22563840                       # Total written bytes from the system interface side
system.mem_ctrls.servicedByWrQ                      6                       # Number of DRAM read bursts serviced by the write queue
system.mem_ctrls.mergedWrBursts                     0                       # Number of DRAM write bursts merged with an existing one
system.mem_ctrls.neitherReadNorWriteReqs            0                       # Number of requests that are neither read nor write
system.mem_ctrls.perBankRdBursts::0             45967                       # Per bank write bursts
system.mem_ctrls.perBankRdBursts::1             46033                       # Per bank write bursts
system.mem_ctrls.perBankRdBursts::2             45520                       # Per bank write bursts
system.mem_ctrls.perBankRdBursts::3             45442                       # Per bank write bursts
system.mem_ctrls.perBankRdBursts::4             46112                       # Per bank write bursts
system.mem_ctrls.perBankRdBursts::5             45826                       # Per bank write bursts
system.mem_ctrls.perBankRdBursts::6             46195                       # Per bank write bursts
system.mem_ctrls.perBankRdBursts::7             46126                       # Per bank write bursts
system.mem_ctrls.perBankRdBursts::8             45548                       # Per bank write bursts
system.mem_ctrls.perBankRdBursts::9             46658                       # Per bank write bursts
system.mem_ctrls.perBankRdBursts::10            46797                       # Per bank write bursts
system.mem_ctrls.perBankRdBursts::11            46701                       # Per bank write bursts
system.mem_ctrls.perBankRdBursts::12            46120                       # Per bank write bursts
system.mem_ctrls.perBankRdBursts::13            46253                       # Per bank write bursts
system.mem_ctrls.perBankRdBursts::14            46302                       # Per bank write bursts
system.mem_ctrls.perBankRdBursts::15            45792                       # Per bank write bursts
system.mem_ctrls.perBankWrBursts::0             21701                       # Per bank write bursts
system.mem_ctrls.perBankWrBursts::1             21770                       # Per bank write bursts
system.mem_ctrls.perBankWrBursts::2             21340                       # Per bank write bursts
system.mem_ctrls.perBankWrBursts::3             21415                       # Per bank write bursts
system.mem_ctrls.perBankWrBursts::4             22095                       # Per bank write bursts
system.mem_ctrls.perBankWrBursts::5             21871                       # Per bank write bursts
system.mem_ctrls.perBankWrBursts::6             22451                       # Per bank write bursts
system.mem_ctrls.perBankWrBursts::7             22091                       # Per bank write bursts
system.mem_ctrls.perBankWrBursts::8             21591                       # Per bank write bursts
system.mem_ctrls.perBankWrBursts::9             22667                       # Per bank write bursts
system.mem_ctrls.perBankWrBursts::10            22961                       # Per bank write bursts
system.mem_ctrls.perBankWrBursts::11            22707                       # Per bank write bursts
system.mem_ctrls.perBankWrBursts::12            21872                       # Per bank write bursts
system.mem_ctrls.perBankWrBursts::13            22002                       # Per bank write bursts
system.mem_ctrls.perBankWrBursts::14            22097                       # Per bank write bursts
system.mem_ctrls.perBankWrBursts::15            21897                       # Per bank write bursts
system.mem_ctrls.numRdRetry                         0                       # Number of times read queue was full causing retry
system.mem_ctrls.numWrRetry                         0                       # Number of times write queue was full causing retry
system.mem_ctrls.totGap                  810803518500                       # Total gap between requests
system.mem_ctrls.readPktSize::0                     0                       # Read request sizes (log2)
system.mem_ctrls.readPktSize::1                     0                       # Read request sizes (log2)
system.mem_ctrls.readPktSize::2                     0                       # Read request sizes (log2)
system.mem_ctrls.readPktSize::3                     0                       # Read request sizes (log2)
system.mem_ctrls.readPktSize::4                     0                       # Read request sizes (log2)
system.mem_ctrls.readPktSize::5                     0                       # Read request sizes (log2)
system.mem_ctrls.readPktSize::6                737398                       # Read request sizes (log2)
system.mem_ctrls.writePktSize::0                    0                       # Write request sizes (log2)
system.mem_ctrls.writePktSize::1                    0                       # Write request sizes (log2)
system.mem_ctrls.writePktSize::2                    0                       # Write request sizes (log2)
system.mem_ctrls.writePktSize::3                    0                       # Write request sizes (log2)
system.mem_ctrls.writePktSize::4                    0                       # Write request sizes (log2)
system.mem_ctrls.writePktSize::5                    0                       # Write request sizes (log2)
system.mem_ctrls.writePktSize::6               352560                       # Write request sizes (log2)
system.mem_ctrls.rdQLenPdf::0                  706659                       # What read queue length does an incoming req see
system.mem_ctrls.rdQLenPdf::1                   30733                       # What read queue length does an incoming req see
system.mem_ctrls.rdQLenPdf::2                       0                       # What read queue length does an incoming req see
system.mem_ctrls.rdQLenPdf::3                       0                       # What read queue length does an incoming req see
system.mem_ctrls.rdQLenPdf::4                       0                       # What read queue length does an incoming req see
system.mem_ctrls.rdQLenPdf::5                       0                       # What read queue length does an incoming req see
system.mem_ctrls.rdQLenPdf::6                       0                       # What read queue length does an incoming req see
system.mem_ctrls.rdQLenPdf::7                       0                       # What read queue length does an incoming req see
system.mem_ctrls.rdQLenPdf::8                       0                       # What read queue length does an incoming req see
system.mem_ctrls.rdQLenPdf::9                       0                       # What read queue length does an incoming req see
system.mem_ctrls.rdQLenPdf::10                      0                       # What read queue length does an incoming req see
system.mem_ctrls.rdQLenPdf::11                      0                       # What read queue length does an incoming req see
system.mem_ctrls.rdQLenPdf::12                      0                       # What read queue length does an incoming req see
system.mem_ctrls.rdQLenPdf::13                      0                       # What read queue length does an incoming req see
system.mem_ctrls.rdQLenPdf::14                      0                       # What read queue length does an incoming req see
system.mem_ctrls.rdQLenPdf::15                      0                       # What read queue length does an incoming req see
system.mem_ctrls.rdQLenPdf::16                      0                       # What read queue length does an incoming req see
system.mem_ctrls.rdQLenPdf::17                      0                       # What read queue length does an incoming req see
system.mem_ctrls.rdQLenPdf::18                      0                       # What read queue length does an incoming req see
system.mem_ctrls.rdQLenPdf::19                      0                       # What read queue length does an incoming req see
system.mem_ctrls.rdQLenPdf::20                      0                       # What read queue length does an incoming req see
system.mem_ctrls.rdQLenPdf::21                      0                       # What read queue length does an incoming req see
system.mem_ctrls.rdQLenPdf::22                      0                       # What read queue length does an incoming req see
system.mem_ctrls.rdQLenPdf::23                      0                       # What read queue length does an incoming req see
system.mem_ctrls.rdQLenPdf::24                      0                       # What read queue length does an incoming req see
system.mem_ctrls.rdQLenPdf::25                      0                       # What read queue length does an incoming req see
system.mem_ctrls.rdQLenPdf::26                      0                       # What read queue length does an incoming req see
system.mem_ctrls.rdQLenPdf::27                      0                       # What read queue length does an incoming req see
system.mem_ctrls.rdQLenPdf::28                      0                       # What read queue length does an incoming req see
system.mem_ctrls.rdQLenPdf::29                      0                       # What read queue length does an incoming req see
system.mem_ctrls.rdQLenPdf::30                      0                       # What read queue length does an incoming req see
system.mem_ctrls.rdQLenPdf::31                      0                       # What read queue length does an incoming req see
system.mem_ctrls.wrQLenPdf::0                       1                       # What write queue length does an incoming req see
system.mem_ctrls.wrQLenPdf::1                       1                       # What write queue length does an incoming req see
system.mem_ctrls.wrQLenPdf::2                       1                       # What write queue length does an incoming req see
system.mem_ctrls.wrQLenPdf::3                       1                       # What write queue length does an incoming req see
system.mem_ctrls.wrQLenPdf::4                       1                       # What write queue length does an incoming req see
system.mem_ctrls.wrQLenPdf::5                       1                       # What write queue length does an incoming req see
system.mem_ctrls.wrQLenPdf::6                       1                       # What write queue length does an incoming req see
system.mem_ctrls.wrQLenPdf::7                       1                       # What write queue length does an incoming req see
system.mem_ctrls.wrQLenPdf::8                       1                       # What write queue length does an incoming req see
system.mem_ctrls.wrQLenPdf::9                       1                       # What write queue length does an incoming req see
system.mem_ctrls.wrQLenPdf::10                      1                       # What write queue length does an incoming req see
system.mem_ctrls.wrQLenPdf::11                      1                       # What write queue length does an incoming req see
system.mem_ctrls.wrQLenPdf::12                      1                       # What write queue length does an incoming req see
system.mem_ctrls.wrQLenPdf::13                      1                       # What write queue length does an incoming req see
system.mem_ctrls.wrQLenPdf::14                      1                       # What write queue length does an incoming req see
system.mem_ctrls.wrQLenPdf::15                    476                       # What write queue length does an incoming req see
system.mem_ctrls.wrQLenPdf::16                    582                       # What write queue length does an incoming req see
system.mem_ctrls.wrQLenPdf::17                  16860                       # What write queue length does an incoming req see
system.mem_ctrls.wrQLenPdf::18                  22111                       # What write queue length does an incoming req see
system.mem_ctrls.wrQLenPdf::19                  22449                       # What write queue length does an incoming req see
system.mem_ctrls.wrQLenPdf::20                  22111                       # What write queue length does an incoming req see
system.mem_ctrls.wrQLenPdf::21                  22117                       # What write queue length does an incoming req see
system.mem_ctrls.wrQLenPdf::22                  22423                       # What write queue length does an incoming req see
system.mem_ctrls.wrQLenPdf::23                  22770                       # What write queue length does an incoming req see
system.mem_ctrls.wrQLenPdf::24                  22428                       # What write queue length does an incoming req see
system.mem_ctrls.wrQLenPdf::25                  22187                       # What write queue length does an incoming req see
system.mem_ctrls.wrQLenPdf::26                  22431                       # What write queue length does an incoming req see
system.mem_ctrls.wrQLenPdf::27                  22149                       # What write queue length does an incoming req see
system.mem_ctrls.wrQLenPdf::28                  22342                       # What write queue length does an incoming req see
system.mem_ctrls.wrQLenPdf::29                  22237                       # What write queue length does an incoming req see
system.mem_ctrls.wrQLenPdf::30                  22149                       # What write queue length does an incoming req see
system.mem_ctrls.wrQLenPdf::31                  22514                       # What write queue length does an incoming req see
system.mem_ctrls.wrQLenPdf::32                  22115                       # What write queue length does an incoming req see
system.mem_ctrls.wrQLenPdf::33                     94                       # What write queue length does an incoming req see
system.mem_ctrls.wrQLenPdf::34                      0                       # What write queue length does an incoming req see
system.mem_ctrls.wrQLenPdf::35                      0                       # What write queue length does an incoming req see
system.mem_ctrls.wrQLenPdf::36                      0                       # What write queue length does an incoming req see
system.mem_ctrls.wrQLenPdf::37                      0                       # What write queue length does an incoming req see
system.mem_ctrls.wrQLenPdf::38                      0                       # What write queue length does an incoming req see
system.mem_ctrls.wrQLenPdf::39                      0                       # What write queue length does an incoming req see
system.mem_ctrls.wrQLenPdf::40                      0                       # What write queue length does an incoming req see
system.mem_ctrls.wrQLenPdf::41                      0                       # What write queue length does an incoming req see
system.mem_ctrls.wrQLenPdf::42                      0                       # What write queue length does an incoming req see
system.mem_ctrls.wrQLenPdf::43                      0                       # What write queue length does an incoming req see
system.mem_ctrls.wrQLenPdf::44                      0                       # What write queue length does an incoming req see
system.mem_ctrls.wrQLenPdf::45                      0                       # What write queue length does an incoming req see
system.mem_ctrls.wrQLenPdf::46                      0                       # What write queue length does an incoming req see
system.mem_ctrls.wrQLenPdf::47                      0                       # What write queue length does an incoming req see
system.mem_ctrls.wrQLenPdf::48                      0                       # What write queue length does an incoming req see
system.mem_ctrls.wrQLenPdf::49                      0                       # What write queue length does an incoming req see
system.mem_ctrls.wrQLenPdf::50                      0                       # What write queue length does an incoming req see
system.mem_ctrls.wrQLenPdf::51                      0                       # What write queue length does an incoming req see
system.mem_ctrls.wrQLenPdf::52                      0                       # What write queue length does an incoming req see
system.mem_ctrls.wrQLenPdf::53                      0                       # What write queue length does an incoming req see
system.mem_ctrls.wrQLenPdf::54                      0                       # What write queue length does an incoming req see
system.mem_ctrls.wrQLenPdf::55                      0                       # What write queue length does an incoming req see
system.mem_ctrls.wrQLenPdf::56                      0                       # What write queue length does an incoming req see
system.mem_ctrls.wrQLenPdf::57                      0                       # What write queue length does an incoming req see
system.mem_ctrls.wrQLenPdf::58                      0                       # What write queue length does an incoming req see
system.mem_ctrls.wrQLenPdf::59                      0                       # What write queue length does an incoming req see
system.mem_ctrls.wrQLenPdf::60                      0                       # What write queue length does an incoming req see
system.mem_ctrls.wrQLenPdf::61                      0                       # What write queue length does an incoming req see
system.mem_ctrls.wrQLenPdf::62                      0                       # What write queue length does an incoming req see
system.mem_ctrls.wrQLenPdf::63                      0                       # What write queue length does an incoming req see
system.mem_ctrls.bytesPerActivate::samples       147471                       # Bytes accessed per row activation
system.mem_ctrls.bytesPerActivate::mean    472.990513                       # Bytes accessed per row activation
system.mem_ctrls.bytesPerActivate::gmean   353.540095                       # Bytes accessed per row activation
system.mem_ctrls.bytesPerActivate::stdev   325.335341                       # Bytes accessed per row activation
system.mem_ctrls.bytesPerActivate::0-127        15841     10.74%     10.74% # Bytes accessed per row activation
system.mem_ctrls.bytesPerActivate::128-255        11511      7.81%     18.55% # Bytes accessed per row activation
system.mem_ctrls.bytesPerActivate::256-383        50035     33.93%     52.48% # Bytes accessed per row activation
system.mem_ctrls.bytesPerActivate::384-511        11395      7.73%     60.20% # Bytes accessed per row activation
system.mem_ctrls.bytesPerActivate::512-639        13512      9.16%     69.37% # Bytes accessed per row activation
system.mem_ctrls.bytesPerActivate::640-767         8440      5.72%     75.09% # Bytes accessed per row activation
system.mem_ctrls.bytesPerActivate::768-895         6628      4.49%     79.58% # Bytes accessed per row activation
system.mem_ctrls.bytesPerActivate::896-1023         5708      3.87%     83.45% # Bytes accessed per row activation
system.mem_ctrls.bytesPerActivate::1024-1151        24401     16.55%    100.00% # Bytes accessed per row activation
system.mem_ctrls.bytesPerActivate::total       147471                       # Bytes accessed per row activation
system.mem_ctrls.rdPerTurnAround::samples        21961                       # Reads before turning the bus around for writes
system.mem_ctrls.rdPerTurnAround::mean      33.575475                       # Reads before turning the bus around for writes
system.mem_ctrls.rdPerTurnAround::gmean     17.021885                       # Reads before turning the bus around for writes
system.mem_ctrls.rdPerTurnAround::stdev   2077.839071                       # Reads before turning the bus around for writes
system.mem_ctrls.rdPerTurnAround::0-16383        21960    100.00%    100.00% # Reads before turning the bus around for writes
system.mem_ctrls.rdPerTurnAround::294912-311295            1      0.00%    100.00% # Reads before turning the bus around for writes
system.mem_ctrls.rdPerTurnAround::total         21961                       # Reads before turning the bus around for writes
system.mem_ctrls.wrPerTurnAround::samples        21961                       # Writes before turning the bus around for reads
system.mem_ctrls.wrPerTurnAround::mean      16.052457                       # Writes before turning the bus around for reads
system.mem_ctrls.wrPerTurnAround::gmean     16.049233                       # Writes before turning the bus around for reads
system.mem_ctrls.wrPerTurnAround::stdev      0.335754                       # Writes before turning the bus around for reads
system.mem_ctrls.wrPerTurnAround::16            21421     97.54%     97.54% # Writes before turning the bus around for reads
system.mem_ctrls.wrPerTurnAround::17                8      0.04%     97.58% # Writes before turning the bus around for reads
system.mem_ctrls.wrPerTurnAround::18              452      2.06%     99.64% # Writes before turning the bus around for reads
system.mem_ctrls.wrPerTurnAround::19               80      0.36%    100.00% # Writes before turning the bus around for reads
system.mem_ctrls.wrPerTurnAround::total         21961                       # Writes before turning the bus around for reads
system.mem_ctrls.totQLat                   9273233713                       # Total ticks spent queuing
system.mem_ctrls.totMemAccLat             23099333713                       # Total ticks spent from burst creation until serviced by the DRAM
system.mem_ctrls.totBusLat                 3686960000                       # Total ticks spent in databus transfers
system.mem_ctrls.avgQLat                     12575.72                       # Average queueing delay per DRAM burst
system.mem_ctrls.avgBusLat                    5000.00                       # Average bus latency per DRAM burst
system.mem_ctrls.avgMemAccLat                31325.72                       # Average memory access latency per DRAM burst
system.mem_ctrls.avgRdBW                        58.21                       # Average DRAM read bandwidth in MiByte/s
system.mem_ctrls.avgWrBW                        27.83                       # Average achieved write bandwidth in MiByte/s
system.mem_ctrls.avgRdBWSys                     58.21                       # Average system read bandwidth in MiByte/s
system.mem_ctrls.avgWrBWSys                     27.83                       # Average system write bandwidth in MiByte/s
system.mem_ctrls.peakBW                      12800.00                       # Theoretical peak bandwidth in MiByte/s
system.mem_ctrls.busUtil                         0.67                       # Data bus utilization in percentage
system.mem_ctrls.busUtilRead                     0.45                       # Data bus utilization in percentage for reads
system.mem_ctrls.busUtilWrite                    0.22                       # Data bus utilization in percentage for writes
system.mem_ctrls.avgRdQLen                       1.01                       # Average read queue length when enqueuing
system.mem_ctrls.avgWrQLen                      13.13                       # Average write queue length when enqueuing
system.mem_ctrls.readRowHits                   621302                       # Number of row buffer hits during reads
system.mem_ctrls.writeRowHits                  321134                       # Number of row buffer hits during writes
system.mem_ctrls.readRowHitRate                 84.26                       # Row buffer hit rate for reads
system.mem_ctrls.writeRowHitRate                91.09                       # Row buffer hit rate for writes
system.mem_ctrls.avgGap                     743885.10                       # Average gap between requests
system.mem_ctrls.pageHitRate                    86.47                       # Row buffer hit rate, read and write combined
system.mem_ctrls_0.actEnergy                566833680                       # Energy for activate commands per rank (pJ)
system.mem_ctrls_0.preEnergy                309284250                       # Energy for precharge commands per rank (pJ)
system.mem_ctrls_0.readEnergy              2864136600                       # Energy for read commands per rank (pJ)
system.mem_ctrls_0.writeEnergy             1132198560                       # Energy for write commands per rank (pJ)
system.mem_ctrls_0.refreshEnergy          52957369920                       # Energy for refresh commands per rank (pJ)
system.mem_ctrls_0.actBackEnergy         196467013755                       # Energy for active background per rank (pJ)
system.mem_ctrls_0.preBackEnergy         314139341250                       # Energy for precharge background per rank (pJ)
system.mem_ctrls_0.totalEnergy           568436178015                       # Total energy per rank (pJ)
system.mem_ctrls_0.averagePower            701.082324                       # Core power per rank (mW)
system.mem_ctrls_0.memoryStateTime::IDLE 521361516250                       # Time in different power states
system.mem_ctrls_0.memoryStateTime::REF   27074320000                       # Time in different power states
system.mem_ctrls_0.memoryStateTime::PRE_PDN            0                       # Time in different power states
system.mem_ctrls_0.memoryStateTime::ACT  262362509750                       # Time in different power states
system.mem_ctrls_0.memoryStateTime::ACT_PDN            0                       # Time in different power states
system.mem_ctrls_1.actEnergy                547918560                       # Energy for activate commands per rank (pJ)
system.mem_ctrls_1.preEnergy                298963500                       # Energy for precharge commands per rank (pJ)
system.mem_ctrls_1.readEnergy              2887014000                       # Energy for read commands per rank (pJ)
system.mem_ctrls_1.writeEnergy             1152079200                       # Energy for write commands per rank (pJ)
system.mem_ctrls_1.refreshEnergy          52957369920                       # Energy for refresh commands per rank (pJ)
system.mem_ctrls_1.actBackEnergy         194769713070                       # Energy for active background per rank (pJ)
system.mem_ctrls_1.preBackEnergy         315628201500                       # Energy for precharge background per rank (pJ)
system.mem_ctrls_1.totalEnergy           568241259750                       # Total energy per rank (pJ)
system.mem_ctrls_1.averagePower            700.841921                       # Core power per rank (mW)
system.mem_ctrls_1.memoryStateTime::IDLE 523864807502                       # Time in different power states
system.mem_ctrls_1.memoryStateTime::REF   27074320000                       # Time in different power states
system.mem_ctrls_1.memoryStateTime::PRE_PDN            0                       # Time in different power states
system.mem_ctrls_1.memoryStateTime::ACT  259858931248                       # Time in different power states
system.mem_ctrls_1.memoryStateTime::ACT_PDN            0                       # Time in different power states
system.cpu_voltage_domain.voltage                   1                       # Voltage in Volts
system.cpu_clk_domain.clock                       500                       # Clock period in ticks
system.cpu0.apic_clk_domain.clock                8000                       # Clock period in ticks
system.cpu0.workload.num_syscalls                 118                       # Number of system calls
system.cpu0.numCycles                      1621607226                       # number of cpu cycles simulated
system.cpu0.numWorkItemsStarted                     0                       # number of work items this cpu started
system.cpu0.numWorkItemsCompleted                   0                       # number of work items this cpu completed
system.cpu0.committedInsts                  446378500                       # Number of instructions committed
system.cpu0.committedOps                   1241960456                       # Number of ops (including micro ops) committed
system.cpu0.num_int_alu_accesses           1173479675                       # Number of integer alu accesses
system.cpu0.num_fp_alu_accesses              29078765                       # Number of float alu accesses
system.cpu0.num_func_calls                   40775440                       # number of times a function call or return occured
system.cpu0.num_conditional_control_insts     97943387                       # number of instructions that are conditional controls
system.cpu0.num_int_insts                  1173479675                       # number of integer instructions
system.cpu0.num_fp_insts                     29078765                       # number of float instructions
system.cpu0.num_int_register_reads         2477792162                       # number of times the integer registers were read
system.cpu0.num_int_register_writes        1160284758                       # number of times the integer registers were written
system.cpu0.num_fp_register_reads            46730960                       # number of times the floating registers were read
system.cpu0.num_fp_register_writes           22854312                       # number of times the floating registers were written
system.cpu0.num_cc_register_reads           993601944                       # number of times the CC registers were read
system.cpu0.num_cc_register_writes          371472064                       # number of times the CC registers were written
system.cpu0.num_mem_refs                    198016204                       # number of memory refs
system.cpu0.num_load_insts                  121189403                       # Number of load instructions
system.cpu0.num_store_insts                  76826801                       # Number of store instructions
system.cpu0.num_idle_cycles                  0.002000                       # Number of idle cycles
system.cpu0.num_busy_cycles              1621607225.998000                       # Number of busy cycles
system.cpu0.not_idle_fraction                1.000000                       # Percentage of non-idle cycles
system.cpu0.idle_fraction                    0.000000                       # Percentage of idle cycles
system.cpu0.Branches                        158266513                       # Number of branches fetched
system.cpu0.op_class::No_OpClass             23648491      1.90%      1.90% # Class of executed instruction
system.cpu0.op_class::IntAlu                895624209     72.11%     74.02% # Class of executed instruction
system.cpu0.op_class::IntMult                     342      0.00%     74.02% # Class of executed instruction
system.cpu0.op_class::IntDiv                101817714      8.20%     82.22% # Class of executed instruction
system.cpu0.op_class::FloatAdd               22853496      1.84%     84.06% # Class of executed instruction
system.cpu0.op_class::FloatCmp                      0      0.00%     84.06% # Class of executed instruction
system.cpu0.op_class::FloatCvt                      0      0.00%     84.06% # Class of executed instruction
system.cpu0.op_class::FloatMult                     0      0.00%     84.06% # Class of executed instruction
system.cpu0.op_class::FloatDiv                      0      0.00%     84.06% # Class of executed instruction
system.cpu0.op_class::FloatSqrt                     0      0.00%     84.06% # Class of executed instruction
system.cpu0.op_class::SimdAdd                       0      0.00%     84.06% # Class of executed instruction
system.cpu0.op_class::SimdAddAcc                    0      0.00%     84.06% # Class of executed instruction
system.cpu0.op_class::SimdAlu                       0      0.00%     84.06% # Class of executed instruction
system.cpu0.op_class::SimdCmp                       0      0.00%     84.06% # Class of executed instruction
system.cpu0.op_class::SimdCvt                       0      0.00%     84.06% # Class of executed instruction
system.cpu0.op_class::SimdMisc                      0      0.00%     84.06% # Class of executed instruction
system.cpu0.op_class::SimdMult                      0      0.00%     84.06% # Class of executed instruction
system.cpu0.op_class::SimdMultAcc                   0      0.00%     84.06% # Class of executed instruction
system.cpu0.op_class::SimdShift                     0      0.00%     84.06% # Class of executed instruction
system.cpu0.op_class::SimdShiftAcc                  0      0.00%     84.06% # Class of executed instruction
system.cpu0.op_class::SimdSqrt                      0      0.00%     84.06% # Class of executed instruction
system.cpu0.op_class::SimdFloatAdd                  0      0.00%     84.06% # Class of executed instruction
system.cpu0.op_class::SimdFloatAlu                  0      0.00%     84.06% # Class of executed instruction
system.cpu0.op_class::SimdFloatCmp                  0      0.00%     84.06% # Class of executed instruction
system.cpu0.op_class::SimdFloatCvt                  0      0.00%     84.06% # Class of executed instruction
system.cpu0.op_class::SimdFloatDiv                  0      0.00%     84.06% # Class of executed instruction
system.cpu0.op_class::SimdFloatMisc                 0      0.00%     84.06% # Class of executed instruction
system.cpu0.op_class::SimdFloatMult                 0      0.00%     84.06% # Class of executed instruction
system.cpu0.op_class::SimdFloatMultAcc              0      0.00%     84.06% # Class of executed instruction
system.cpu0.op_class::SimdFloatSqrt                 0      0.00%     84.06% # Class of executed instruction
system.cpu0.op_class::MemRead               121189403      9.76%     93.81% # Class of executed instruction
system.cpu0.op_class::MemWrite               76826801      6.19%    100.00% # Class of executed instruction
system.cpu0.op_class::IprAccess                     0      0.00%    100.00% # Class of executed instruction
system.cpu0.op_class::InstPrefetch                  0      0.00%    100.00% # Class of executed instruction
system.cpu0.op_class::total                1241960456                       # Class of executed instruction
system.cpu1.apic_clk_domain.clock                8000                       # Clock period in ticks
system.cpu1.numCycles                      1620957158                       # number of cpu cycles simulated
system.cpu1.numWorkItemsStarted                     0                       # number of work items this cpu started
system.cpu1.numWorkItemsCompleted                   0                       # number of work items this cpu completed
system.cpu1.committedInsts                   21006723                       # Number of instructions committed
system.cpu1.committedOps                     41857771                       # Number of ops (including micro ops) committed
system.cpu1.num_int_alu_accesses             32737311                       # Number of integer alu accesses
system.cpu1.num_fp_alu_accesses              22882035                       # Number of float alu accesses
system.cpu1.num_func_calls                      40531                       # number of times a function call or return occured
system.cpu1.num_conditional_control_insts      2310570                       # number of instructions that are conditional controls
system.cpu1.num_int_insts                    32737311                       # number of integer instructions
system.cpu1.num_fp_insts                     22882035                       # number of float instructions
system.cpu1.num_int_register_reads           63226277                       # number of times the integer registers were read
system.cpu1.num_int_register_writes          16641619                       # number of times the integer registers were written
system.cpu1.num_fp_register_reads            31860914                       # number of times the floating registers were read
system.cpu1.num_fp_register_writes           18261133                       # number of times the floating registers were written
system.cpu1.num_cc_register_reads            13883680                       # number of times the CC registers were read
system.cpu1.num_cc_register_writes           13877323                       # number of times the CC registers were written
system.cpu1.num_mem_refs                     13842900                       # number of memory refs
system.cpu1.num_load_insts                    9201655                       # Number of load instructions
system.cpu1.num_store_insts                   4641245                       # Number of store instructions
system.cpu1.num_idle_cycles              1504296689.467042                       # Number of idle cycles
system.cpu1.num_busy_cycles              116660468.532958                       # Number of busy cycles
system.cpu1.not_idle_fraction                0.071970                       # Percentage of non-idle cycles
system.cpu1.idle_fraction                    0.928030                       # Percentage of idle cycles
system.cpu1.Branches                          2371387                       # Number of branches fetched
system.cpu1.op_class::No_OpClass                    2      0.00%      0.00% # Class of executed instruction
system.cpu1.op_class::IntAlu                 18836779     45.00%     45.00% # Class of executed instruction
system.cpu1.op_class::IntMult                   57612      0.14%     45.14% # Class of executed instruction
system.cpu1.op_class::IntDiv                       14      0.00%     45.14% # Class of executed instruction
system.cpu1.op_class::FloatAdd                9120464     21.79%     66.93% # Class of executed instruction
system.cpu1.op_class::FloatCmp                      0      0.00%     66.93% # Class of executed instruction
system.cpu1.op_class::FloatCvt                      0      0.00%     66.93% # Class of executed instruction
system.cpu1.op_class::FloatMult                     0      0.00%     66.93% # Class of executed instruction
system.cpu1.op_class::FloatDiv                      0      0.00%     66.93% # Class of executed instruction
system.cpu1.op_class::FloatSqrt                     0      0.00%     66.93% # Class of executed instruction
system.cpu1.op_class::SimdAdd                       0      0.00%     66.93% # Class of executed instruction
system.cpu1.op_class::SimdAddAcc                    0      0.00%     66.93% # Class of executed instruction
system.cpu1.op_class::SimdAlu                       0      0.00%     66.93% # Class of executed instruction
system.cpu1.op_class::SimdCmp                       0      0.00%     66.93% # Class of executed instruction
system.cpu1.op_class::SimdCvt                       0      0.00%     66.93% # Class of executed instruction
system.cpu1.op_class::SimdMisc                      0      0.00%     66.93% # Class of executed instruction
system.cpu1.op_class::SimdMult                      0      0.00%     66.93% # Class of executed instruction
system.cpu1.op_class::SimdMultAcc                   0      0.00%     66.93% # Class of executed instruction
system.cpu1.op_class::SimdShift                     0      0.00%     66.93% # Class of executed instruction
system.cpu1.op_class::SimdShiftAcc                  0      0.00%     66.93% # Class of executed instruction
system.cpu1.op_class::SimdSqrt                      0      0.00%     66.93% # Class of executed instruction
system.cpu1.op_class::SimdFloatAdd                  0      0.00%     66.93% # Class of executed instruction
system.cpu1.op_class::SimdFloatAlu                  0      0.00%     66.93% # Class of executed instruction
system.cpu1.op_class::SimdFloatCmp                  0      0.00%     66.93% # Class of executed instruction
system.cpu1.op_class::SimdFloatCvt                  0      0.00%     66.93% # Class of executed instruction
system.cpu1.op_class::SimdFloatDiv                  0      0.00%     66.93% # Class of executed instruction
system.cpu1.op_class::SimdFloatMisc                 0      0.00%     66.93% # Class of executed instruction
system.cpu1.op_class::SimdFloatMult                 0      0.00%     66.93% # Class of executed instruction
system.cpu1.op_class::SimdFloatMultAcc              0      0.00%     66.93% # Class of executed instruction
system.cpu1.op_class::SimdFloatSqrt                 0      0.00%     66.93% # Class of executed instruction
system.cpu1.op_class::MemRead                 9201655     21.98%     88.91% # Class of executed instruction
system.cpu1.op_class::MemWrite                4641245     11.09%    100.00% # Class of executed instruction
system.cpu1.op_class::IprAccess                     0      0.00%    100.00% # Class of executed instruction
system.cpu1.op_class::InstPrefetch                  0      0.00%    100.00% # Class of executed instruction
system.cpu1.op_class::total                  41857771                       # Class of executed instruction
system.cpu2.apic_clk_domain.clock                8000                       # Clock period in ticks
system.cpu2.numCycles                      1621330437                       # number of cpu cycles simulated
system.cpu2.numWorkItemsStarted                     0                       # number of work items this cpu started
system.cpu2.numWorkItemsCompleted                   0                       # number of work items this cpu completed
system.cpu2.committedInsts                   21006723                       # Number of instructions committed
system.cpu2.committedOps                     41857771                       # Number of ops (including micro ops) committed
system.cpu2.num_int_alu_accesses             32737311                       # Number of integer alu accesses
system.cpu2.num_fp_alu_accesses              22882035                       # Number of float alu accesses
system.cpu2.num_func_calls                      40531                       # number of times a function call or return occured
system.cpu2.num_conditional_control_insts      2310570                       # number of instructions that are conditional controls
system.cpu2.num_int_insts                    32737311                       # number of integer instructions
system.cpu2.num_fp_insts                     22882035                       # number of float instructions
system.cpu2.num_int_register_reads           63226277                       # number of times the integer registers were read
system.cpu2.num_int_register_writes          16641619                       # number of times the integer registers were written
system.cpu2.num_fp_register_reads            31860914                       # number of times the floating registers were read
system.cpu2.num_fp_register_writes           18261133                       # number of times the floating registers were written
system.cpu2.num_cc_register_reads            13883680                       # number of times the CC registers were read
system.cpu2.num_cc_register_writes           13877323                       # number of times the CC registers were written
system.cpu2.num_mem_refs                     13842900                       # number of memory refs
system.cpu2.num_load_insts                    9201655                       # Number of load instructions
system.cpu2.num_store_insts                   4641245                       # Number of store instructions
system.cpu2.num_idle_cycles              1504270631.122979                       # Number of idle cycles
system.cpu2.num_busy_cycles              117059805.877021                       # Number of busy cycles
system.cpu2.not_idle_fraction                0.072200                       # Percentage of non-idle cycles
system.cpu2.idle_fraction                    0.927800                       # Percentage of idle cycles
system.cpu2.Branches                          2371387                       # Number of branches fetched
system.cpu2.op_class::No_OpClass                    2      0.00%      0.00% # Class of executed instruction
system.cpu2.op_class::IntAlu                 18836779     45.00%     45.00% # Class of executed instruction
system.cpu2.op_class::IntMult                   57612      0.14%     45.14% # Class of executed instruction
system.cpu2.op_class::IntDiv                       14      0.00%     45.14% # Class of executed instruction
system.cpu2.op_class::FloatAdd                9120464     21.79%     66.93% # Class of executed instruction
system.cpu2.op_class::FloatCmp                      0      0.00%     66.93% # Class of executed instruction
system.cpu2.op_class::FloatCvt                      0      0.00%     66.93% # Class of executed instruction
system.cpu2.op_class::FloatMult                     0      0.00%     66.93% # Class of executed instruction
system.cpu2.op_class::FloatDiv                      0      0.00%     66.93% # Class of executed instruction
system.cpu2.op_class::FloatSqrt                     0      0.00%     66.93% # Class of executed instruction
system.cpu2.op_class::SimdAdd                       0      0.00%     66.93% # Class of executed instruction
system.cpu2.op_class::SimdAddAcc                    0      0.00%     66.93% # Class of executed instruction
system.cpu2.op_class::SimdAlu                       0      0.00%     66.93% # Class of executed instruction
system.cpu2.op_class::SimdCmp                       0      0.00%     66.93% # Class of executed instruction
system.cpu2.op_class::SimdCvt                       0      0.00%     66.93% # Class of executed instruction
system.cpu2.op_class::SimdMisc                      0      0.00%     66.93% # Class of executed instruction
system.cpu2.op_class::SimdMult                      0      0.00%     66.93% # Class of executed instruction
system.cpu2.op_class::SimdMultAcc                   0      0.00%     66.93% # Class of executed instruction
system.cpu2.op_class::SimdShift                     0      0.00%     66.93% # Class of executed instruction
system.cpu2.op_class::SimdShiftAcc                  0      0.00%     66.93% # Class of executed instruction
system.cpu2.op_class::SimdSqrt                      0      0.00%     66.93% # Class of executed instruction
system.cpu2.op_class::SimdFloatAdd                  0      0.00%     66.93% # Class of executed instruction
system.cpu2.op_class::SimdFloatAlu                  0      0.00%     66.93% # Class of executed instruction
system.cpu2.op_class::SimdFloatCmp                  0      0.00%     66.93% # Class of executed instruction
system.cpu2.op_class::SimdFloatCvt                  0      0.00%     66.93% # Class of executed instruction
system.cpu2.op_class::SimdFloatDiv                  0      0.00%     66.93% # Class of executed instruction
system.cpu2.op_class::SimdFloatMisc                 0      0.00%     66.93% # Class of executed instruction
system.cpu2.op_class::SimdFloatMult                 0      0.00%     66.93% # Class of executed instruction
system.cpu2.op_class::SimdFloatMultAcc              0      0.00%     66.93% # Class of executed instruction
system.cpu2.op_class::SimdFloatSqrt                 0      0.00%     66.93% # Class of executed instruction
system.cpu2.op_class::MemRead                 9201655     21.98%     88.91% # Class of executed instruction
system.cpu2.op_class::MemWrite                4641245     11.09%    100.00% # Class of executed instruction
system.cpu2.op_class::IprAccess                     0      0.00%    100.00% # Class of executed instruction
system.cpu2.op_class::InstPrefetch                  0      0.00%    100.00% # Class of executed instruction
system.cpu2.op_class::total                  41857771                       # Class of executed instruction
system.ruby.clk_domain.clock                      500                       # Clock period in ticks
system.ruby.delayHist::bucket_size                  4                       # delay histogram for all message
system.ruby.delayHist::max_bucket                  39                       # delay histogram for all message
system.ruby.delayHist::samples               13604623                       # delay histogram for all message
system.ruby.delayHist::mean                  0.745764                       # delay histogram for all message
system.ruby.delayHist::stdev                 2.407395                       # delay histogram for all message
system.ruby.delayHist                    |    12362762     90.87%     90.87% |       66623      0.49%     91.36% |     1149197      8.45%     99.81% |        3298      0.02%     99.83% |       10490      0.08%     99.91% |       12021      0.09%    100.00% |         230      0.00%    100.00% |           1      0.00%    100.00% |           0      0.00%    100.00% |           1      0.00%    100.00% # delay histogram for all message
system.ruby.delayHist::total                 13604623                       # delay histogram for all message
system.ruby.outstanding_req_hist::bucket_size            1                      
system.ruby.outstanding_req_hist::max_bucket            9                      
system.ruby.outstanding_req_hist::samples    859122280                      
system.ruby.outstanding_req_hist::mean       1.000258                      
system.ruby.outstanding_req_hist::gmean      1.000179                      
system.ruby.outstanding_req_hist::stdev      0.016046                      
system.ruby.outstanding_req_hist         |           0      0.00%      0.00% |   858901032     99.97%     99.97% |      221248      0.03%    100.00% |           0      0.00%    100.00% |           0      0.00%    100.00% |           0      0.00%    100.00% |           0      0.00%    100.00% |           0      0.00%    100.00% |           0      0.00%    100.00% |           0      0.00%    100.00%
system.ruby.outstanding_req_hist::total     859122280                      
system.ruby.latency_hist::bucket_size             128                      
system.ruby.latency_hist::max_bucket             1279                      
system.ruby.latency_hist::samples           859122280                      
system.ruby.latency_hist::mean               1.159983                      
system.ruby.latency_hist::gmean              1.009275                      
system.ruby.latency_hist::stdev              5.041679                      
system.ruby.latency_hist                 |   858990097     99.98%     99.98% |       85559      0.01%     99.99% |       11707      0.00%    100.00% |       20631      0.00%    100.00% |       11721      0.00%    100.00% |        2220      0.00%    100.00% |          65      0.00%    100.00% |         154      0.00%    100.00% |         115      0.00%    100.00% |          11      0.00%    100.00%
system.ruby.latency_hist::total             859122280                      
system.ruby.hit_latency_hist::bucket_size          128                      
system.ruby.hit_latency_hist::max_bucket         1279                      
system.ruby.hit_latency_hist::samples       859122280                      
system.ruby.hit_latency_hist::mean           1.159983                      
system.ruby.hit_latency_hist::gmean          1.009275                      
system.ruby.hit_latency_hist::stdev          5.041679                      
system.ruby.hit_latency_hist             |   858990097     99.98%     99.98% |       85559      0.01%     99.99% |       11707      0.00%    100.00% |       20631      0.00%    100.00% |       11721      0.00%    100.00% |        2220      0.00%    100.00% |          65      0.00%    100.00% |         154      0.00%    100.00% |         115      0.00%    100.00% |          11      0.00%    100.00%
system.ruby.hit_latency_hist::total         859122280                      
system.ruby.l0_cntrl0.Dcache.demand_hits    197442508                       # Number of cache demand hits
system.ruby.l0_cntrl0.Dcache.demand_misses       573760                       # Number of cache demand misses
system.ruby.l0_cntrl0.Dcache.demand_accesses    198016268                       # Number of cache demand accesses
system.ruby.l0_cntrl0.Icache.demand_hits    579473892                       # Number of cache demand hits
system.ruby.l0_cntrl0.Icache.demand_misses         3120                       # Number of cache demand misses
system.ruby.l0_cntrl0.Icache.demand_accesses    579477012                       # Number of cache demand accesses
system.ruby.l0_cntrl0.Zcache.demand_hits            0                       # Number of cache demand hits
system.ruby.l0_cntrl0.Zcache.demand_misses            0                       # Number of cache demand misses
system.ruby.l0_cntrl0.Zcache.demand_accesses            0                       # Number of cache demand accesses
system.ruby.l0_cntrl1.Dcache.demand_hits     13181430                       # Number of cache demand hits
system.ruby.l0_cntrl1.Dcache.demand_misses       772062                       # Number of cache demand misses
system.ruby.l0_cntrl1.Dcache.demand_accesses     13953492                       # Number of cache demand accesses
system.ruby.l0_cntrl1.Icache.demand_hits     26860080                       # Number of cache demand hits
system.ruby.l0_cntrl1.Icache.demand_misses          928                       # Number of cache demand misses
system.ruby.l0_cntrl1.Icache.demand_accesses     26861008                       # Number of cache demand accesses
system.ruby.l0_cntrl1.Zcache.demand_hits            0                       # Number of cache demand hits
system.ruby.l0_cntrl1.Zcache.demand_misses            0                       # Number of cache demand misses
system.ruby.l0_cntrl1.Zcache.demand_accesses            0                       # Number of cache demand accesses
system.ruby.l0_cntrl2.Dcache.demand_hits     13158992                       # Number of cache demand hits
system.ruby.l0_cntrl2.Dcache.demand_misses       794500                       # Number of cache demand misses
system.ruby.l0_cntrl2.Dcache.demand_accesses     13953492                       # Number of cache demand accesses
system.ruby.l0_cntrl2.Icache.demand_hits     26860120                       # Number of cache demand hits
system.ruby.l0_cntrl2.Icache.demand_misses          888                       # Number of cache demand misses
system.ruby.l0_cntrl2.Icache.demand_accesses     26861008                       # Number of cache demand accesses
system.ruby.l0_cntrl2.Zcache.demand_hits            0                       # Number of cache demand hits
system.ruby.l0_cntrl2.Zcache.demand_misses            0                       # Number of cache demand misses
system.ruby.l0_cntrl2.Zcache.demand_accesses            0                       # Number of cache demand accesses
system.ruby.l1_cntrl0.cache.demand_hits           156                       # Number of cache demand hits
system.ruby.l1_cntrl0.cache.demand_misses       576724                       # Number of cache demand misses
system.ruby.l1_cntrl0.cache.demand_accesses       576880                       # Number of cache demand accesses
system.ruby.l1_cntrl1.cache.demand_hits         43872                       # Number of cache demand hits
system.ruby.l1_cntrl1.cache.demand_misses       729118                       # Number of cache demand misses
system.ruby.l1_cntrl1.cache.demand_accesses       772990                       # Number of cache demand accesses
system.ruby.l1_cntrl2.cache.demand_hits         42501                       # Number of cache demand hits
system.ruby.l1_cntrl2.cache.demand_misses       752887                       # Number of cache demand misses
system.ruby.l1_cntrl2.cache.demand_accesses       795388                       # Number of cache demand accesses
system.ruby.l2_cntrl0.L2cache.demand_hits      1208419                       # Number of cache demand hits
system.ruby.l2_cntrl0.L2cache.demand_misses       850310                       # Number of cache demand misses
system.ruby.l2_cntrl0.L2cache.demand_accesses      2058729                       # Number of cache demand accesses
system.ruby.l2_cntrl0.fully_busy_cycles           147                       # cycles for which number of transistions == max transitions
system.ruby.memctrl_clk_domain.clock             1500                       # Clock period in ticks
system.ruby.network.routers0.percent_links_utilized            0                      
system.ruby.network.routers1.percent_links_utilized            0                      
system.ruby.network.routers2.percent_links_utilized            0                      
system.ruby.network.routers3.percent_links_utilized     0.187187                      
system.ruby.network.routers3.msg_count.Control::0       576724                      
system.ruby.network.routers3.msg_count.Request_Control::2         8056                      
system.ruby.network.routers3.msg_count.Response_Data::1       584731                      
system.ruby.network.routers3.msg_count.Response_Control::1       575902                      
system.ruby.network.routers3.msg_count.Response_Control::2       576712                      
system.ruby.network.routers3.msg_count.Writeback_Data::0       571220                      
system.ruby.network.routers3.msg_count.Writeback_Data::1           23                      
system.ruby.network.routers3.msg_count.Writeback_Control::0          609                      
system.ruby.network.routers3.msg_bytes.Control::0      4613792                      
system.ruby.network.routers3.msg_bytes.Request_Control::2        64448                      
system.ruby.network.routers3.msg_bytes.Response_Data::1     42100632                      
system.ruby.network.routers3.msg_bytes.Response_Control::1      4607216                      
system.ruby.network.routers3.msg_bytes.Response_Control::2      4613696                      
system.ruby.network.routers3.msg_bytes.Writeback_Data::0     41127840                      
system.ruby.network.routers3.msg_bytes.Writeback_Data::1         1656                      
system.ruby.network.routers3.msg_bytes.Writeback_Control::0         4872                      
system.ruby.network.routers4.percent_links_utilized     0.185360                      
system.ruby.network.routers4.msg_count.Control::0       729118                      
system.ruby.network.routers4.msg_count.Request_Control::2       128380                      
system.ruby.network.routers4.msg_count.Response_Data::1       816896                      
system.ruby.network.routers4.msg_count.Response_Control::1       757406                      
system.ruby.network.routers4.msg_count.Response_Control::2       725233                      
system.ruby.network.routers4.msg_count.Writeback_Data::0       214326                      
system.ruby.network.routers4.msg_count.Writeback_Data::1            7                      
system.ruby.network.routers4.msg_count.Writeback_Control::0       402048                      
system.ruby.network.routers4.msg_bytes.Control::0      5832944                      
system.ruby.network.routers4.msg_bytes.Request_Control::2      1027040                      
system.ruby.network.routers4.msg_bytes.Response_Data::1     58816512                      
system.ruby.network.routers4.msg_bytes.Response_Control::1      6059248                      
system.ruby.network.routers4.msg_bytes.Response_Control::2      5801864                      
system.ruby.network.routers4.msg_bytes.Writeback_Data::0     15431472                      
system.ruby.network.routers4.msg_bytes.Writeback_Data::1          504                      
system.ruby.network.routers4.msg_bytes.Writeback_Control::0      3216384                      
system.ruby.network.routers5.percent_links_utilized     0.182806                      
system.ruby.network.routers5.msg_count.Control::0       752887                      
system.ruby.network.routers5.msg_count.Request_Control::2        74477                      
system.ruby.network.routers5.msg_count.Response_Data::1       764312                      
system.ruby.network.routers5.msg_count.Response_Control::1       804595                      
system.ruby.network.routers5.msg_count.Response_Control::2       749027                      
system.ruby.network.routers5.msg_count.Writeback_Data::0       243776                      
system.ruby.network.routers5.msg_count.Writeback_Data::1            5                      
system.ruby.network.routers5.msg_count.Writeback_Control::0       403763                      
system.ruby.network.routers5.msg_bytes.Control::0      6023096                      
system.ruby.network.routers5.msg_bytes.Request_Control::2       595816                      
system.ruby.network.routers5.msg_bytes.Response_Data::1     55030464                      
system.ruby.network.routers5.msg_bytes.Response_Control::1      6436760                      
system.ruby.network.routers5.msg_bytes.Response_Control::2      5992216                      
system.ruby.network.routers5.msg_bytes.Writeback_Data::0     17551872                      
system.ruby.network.routers5.msg_bytes.Writeback_Data::1          360                      
system.ruby.network.routers5.msg_bytes.Writeback_Control::0      3230104                      
system.ruby.network.routers6.percent_links_utilized     0.691117                      
system.ruby.network.routers6.msg_count.Control::0      2796127                      
system.ruby.network.routers6.msg_count.Request_Control::2       210885                      
system.ruby.network.routers6.msg_count.Response_Data::1      3032967                      
system.ruby.network.routers6.msg_count.Response_Control::1      2403471                      
system.ruby.network.routers6.msg_count.Response_Control::2      2050972                      
system.ruby.network.routers6.msg_count.Writeback_Data::0      1029322                      
system.ruby.network.routers6.msg_count.Writeback_Data::1           35                      
system.ruby.network.routers6.msg_count.Writeback_Control::0       806420                      
system.ruby.network.routers6.msg_bytes.Control::0     22369016                      
system.ruby.network.routers6.msg_bytes.Request_Control::2      1687080                      
system.ruby.network.routers6.msg_bytes.Response_Data::1    218373624                      
system.ruby.network.routers6.msg_bytes.Response_Control::1     19227768                      
system.ruby.network.routers6.msg_bytes.Response_Control::2     16407776                      
system.ruby.network.routers6.msg_bytes.Writeback_Data::0     74111184                      
system.ruby.network.routers6.msg_bytes.Writeback_Data::1         2520                      
system.ruby.network.routers6.msg_bytes.Writeback_Control::0      6451360                      
system.ruby.network.routers7.percent_links_utilized     0.169799                      
system.ruby.network.routers7.msg_count.Control::0       737398                      
system.ruby.network.routers7.msg_count.Response_Data::1      1089958                      
system.ruby.network.routers7.msg_count.Response_Control::1       466876                      
system.ruby.network.routers7.msg_bytes.Control::0      5899184                      
system.ruby.network.routers7.msg_bytes.Response_Data::1     78476976                      
system.ruby.network.routers7.msg_bytes.Response_Control::1      3735008                      
system.ruby.network.routers8.percent_links_utilized     0.177084                      
system.ruby.network.routers8.msg_count.Control::0      2796127                      
system.ruby.network.routers8.msg_count.Request_Control::2       210913                      
system.ruby.network.routers8.msg_count.Response_Data::1      3145879                      
system.ruby.network.routers8.msg_count.Response_Control::1      2504125                      
system.ruby.network.routers8.msg_count.Response_Control::2      2050972                      
system.ruby.network.routers8.msg_count.Writeback_Data::0      1029322                      
system.ruby.network.routers8.msg_count.Writeback_Data::1           35                      
system.ruby.network.routers8.msg_count.Writeback_Control::0       806420                      
system.ruby.network.routers8.msg_bytes.Control::0     22369016                      
system.ruby.network.routers8.msg_bytes.Request_Control::2      1687304                      
system.ruby.network.routers8.msg_bytes.Response_Data::1    226503288                      
system.ruby.network.routers8.msg_bytes.Response_Control::1     20033000                      
system.ruby.network.routers8.msg_bytes.Response_Control::2     16407776                      
system.ruby.network.routers8.msg_bytes.Writeback_Data::0     74111184                      
system.ruby.network.routers8.msg_bytes.Writeback_Data::1         2520                      
system.ruby.network.routers8.msg_bytes.Writeback_Control::0      6451360                      
system.ruby.network.msg_count.Control         8388381                      
system.ruby.network.msg_count.Request_Control       632711                      
system.ruby.network.msg_count.Response_Data      9434743                      
system.ruby.network.msg_count.Response_Control     13665291                      
system.ruby.network.msg_count.Writeback_Data      3088071                      
system.ruby.network.msg_count.Writeback_Control      2419260                      
system.ruby.network.msg_byte.Control         67107048                      
system.ruby.network.msg_byte.Request_Control      5061688                      
system.ruby.network.msg_byte.Response_Data    679301496                      
system.ruby.network.msg_byte.Response_Control    109322328                      
system.ruby.network.msg_byte.Writeback_Data    222341112                      
system.ruby.network.msg_byte.Writeback_Control     19354080                      
system.ruby.network.routers0.throttle0.link_utilization            0                      
system.ruby.network.routers0.throttle1.link_utilization            0                      
system.ruby.network.routers1.throttle0.link_utilization            0                      
system.ruby.network.routers1.throttle1.link_utilization            0                      
system.ruby.network.routers2.throttle0.link_utilization            0                      
system.ruby.network.routers2.throttle1.link_utilization            0                      
system.ruby.network.routers3.throttle0.link_utilization     0.177917                      
system.ruby.network.routers3.throttle0.msg_count.Request_Control::2         8056                      
system.ruby.network.routers3.throttle0.msg_count.Response_Data::1       576698                      
system.ruby.network.routers3.throttle0.msg_count.Response_Control::1       571886                      
system.ruby.network.routers3.throttle0.msg_bytes.Request_Control::2        64448                      
system.ruby.network.routers3.throttle0.msg_bytes.Response_Data::1     41522256                      
system.ruby.network.routers3.throttle0.msg_bytes.Response_Control::1      4575088                      
system.ruby.network.routers3.throttle1.link_utilization     0.196458                      
system.ruby.network.routers3.throttle1.msg_count.Control::0       576724                      
system.ruby.network.routers3.throttle1.msg_count.Response_Data::1         8033                      
system.ruby.network.routers3.throttle1.msg_count.Response_Control::1         4016                      
system.ruby.network.routers3.throttle1.msg_count.Response_Control::2       576712                      
system.ruby.network.routers3.throttle1.msg_count.Writeback_Data::0       571220                      
system.ruby.network.routers3.throttle1.msg_count.Writeback_Data::1           23                      
system.ruby.network.routers3.throttle1.msg_count.Writeback_Control::0          609                      
system.ruby.network.routers3.throttle1.msg_bytes.Control::0      4613792                      
system.ruby.network.routers3.throttle1.msg_bytes.Response_Data::1       578376                      
system.ruby.network.routers3.throttle1.msg_bytes.Response_Control::1        32128                      
system.ruby.network.routers3.throttle1.msg_bytes.Response_Control::2      4613696                      
system.ruby.network.routers3.throttle1.msg_bytes.Writeback_Data::0     41127840                      
system.ruby.network.routers3.throttle1.msg_bytes.Writeback_Data::1         1656                      
system.ruby.network.routers3.throttle1.msg_bytes.Writeback_Control::0         4872                      
system.ruby.network.routers4.throttle0.link_utilization     0.216510                      
system.ruby.network.routers4.throttle0.msg_count.Request_Control::2       128380                      
system.ruby.network.routers4.throttle0.msg_count.Response_Data::1       688414                      
system.ruby.network.routers4.throttle0.msg_count.Response_Control::1       697784                      
system.ruby.network.routers4.throttle0.msg_bytes.Request_Control::2      1027040                      
system.ruby.network.routers4.throttle0.msg_bytes.Response_Data::1     49565808                      
system.ruby.network.routers4.throttle0.msg_bytes.Response_Control::1      5582272                      
system.ruby.network.routers4.throttle1.link_utilization     0.154210                      
system.ruby.network.routers4.throttle1.msg_count.Control::0       729118                      
system.ruby.network.routers4.throttle1.msg_count.Response_Data::1       128482                      
system.ruby.network.routers4.throttle1.msg_count.Response_Control::1        59622                      
system.ruby.network.routers4.throttle1.msg_count.Response_Control::2       725233                      
system.ruby.network.routers4.throttle1.msg_count.Writeback_Data::0       214326                      
system.ruby.network.routers4.throttle1.msg_count.Writeback_Data::1            7                      
system.ruby.network.routers4.throttle1.msg_count.Writeback_Control::0       402048                      
system.ruby.network.routers4.throttle1.msg_bytes.Control::0      5832944                      
system.ruby.network.routers4.throttle1.msg_bytes.Response_Data::1      9250704                      
system.ruby.network.routers4.throttle1.msg_bytes.Response_Control::1       476976                      
system.ruby.network.routers4.throttle1.msg_bytes.Response_Control::2      5801864                      
system.ruby.network.routers4.throttle1.msg_bytes.Writeback_Data::0     15431472                      
system.ruby.network.routers4.throttle1.msg_bytes.Writeback_Data::1          504                      
system.ruby.network.routers4.throttle1.msg_bytes.Writeback_Control::0      3216384                      
system.ruby.network.routers5.throttle0.link_utilization     0.218258                      
system.ruby.network.routers5.throttle0.msg_count.Request_Control::2        74477                      
system.ruby.network.routers5.throttle0.msg_count.Response_Data::1       692970                      
system.ruby.network.routers5.throttle0.msg_count.Response_Control::1       767373                      
system.ruby.network.routers5.throttle0.msg_bytes.Request_Control::2       595816                      
system.ruby.network.routers5.throttle0.msg_bytes.Response_Data::1     49893840                      
system.ruby.network.routers5.throttle0.msg_bytes.Response_Control::1      6138984                      
system.ruby.network.routers5.throttle1.link_utilization     0.147354                      
system.ruby.network.routers5.throttle1.msg_count.Control::0       752887                      
system.ruby.network.routers5.throttle1.msg_count.Response_Data::1        71342                      
system.ruby.network.routers5.throttle1.msg_count.Response_Control::1        37222                      
system.ruby.network.routers5.throttle1.msg_count.Response_Control::2       749027                      
system.ruby.network.routers5.throttle1.msg_count.Writeback_Data::0       243776                      
system.ruby.network.routers5.throttle1.msg_count.Writeback_Data::1            5                      
system.ruby.network.routers5.throttle1.msg_count.Writeback_Control::0       403763                      
system.ruby.network.routers5.throttle1.msg_bytes.Control::0      6023096                      
system.ruby.network.routers5.throttle1.msg_bytes.Response_Data::1      5136624                      
system.ruby.network.routers5.throttle1.msg_bytes.Response_Control::1       297776                      
system.ruby.network.routers5.throttle1.msg_bytes.Response_Control::2      5992216                      
system.ruby.network.routers5.throttle1.msg_bytes.Writeback_Data::0     17551872                      
system.ruby.network.routers5.throttle1.msg_bytes.Writeback_Data::1          360                      
system.ruby.network.routers5.throttle1.msg_bytes.Writeback_Control::0      3230104                      
system.ruby.network.routers6.throttle0.link_utilization     0.681651                      
system.ruby.network.routers6.throttle0.msg_count.Control::0      2058729                      
system.ruby.network.routers6.throttle0.msg_count.Response_Data::1       835237                      
system.ruby.network.routers6.throttle0.msg_count.Response_Control::1       409924                      
system.ruby.network.routers6.throttle0.msg_count.Response_Control::2      2050972                      
system.ruby.network.routers6.throttle0.msg_count.Writeback_Data::0      1029322                      
system.ruby.network.routers6.throttle0.msg_count.Writeback_Data::1           35                      
system.ruby.network.routers6.throttle0.msg_count.Writeback_Control::0       806420                      
system.ruby.network.routers6.throttle0.msg_bytes.Control::0     16469832                      
system.ruby.network.routers6.throttle0.msg_bytes.Response_Data::1     60137064                      
system.ruby.network.routers6.throttle0.msg_bytes.Response_Control::1      3279392                      
system.ruby.network.routers6.throttle0.msg_bytes.Response_Control::2     16407776                      
system.ruby.network.routers6.throttle0.msg_bytes.Writeback_Data::0     74111184                      
system.ruby.network.routers6.throttle0.msg_bytes.Writeback_Data::1         2520                      
system.ruby.network.routers6.throttle0.msg_bytes.Writeback_Control::0      6451360                      
system.ruby.network.routers6.throttle1.link_utilization     0.700583                      
system.ruby.network.routers6.throttle1.msg_count.Control::0       737398                      
system.ruby.network.routers6.throttle1.msg_count.Request_Control::2       210885                      
system.ruby.network.routers6.throttle1.msg_count.Response_Data::1      2197730                      
system.ruby.network.routers6.throttle1.msg_count.Response_Control::1      1993547                      
system.ruby.network.routers6.throttle1.msg_bytes.Control::0      5899184                      
system.ruby.network.routers6.throttle1.msg_bytes.Request_Control::2      1687080                      
system.ruby.network.routers6.throttle1.msg_bytes.Response_Data::1    158236560                      
system.ruby.network.routers6.throttle1.msg_bytes.Response_Control::1     15948376                      
system.ruby.network.routers7.throttle0.link_utilization     0.122335                      
system.ruby.network.routers7.throttle0.msg_count.Control::0       737398                      
[...]
system.ruby.L1Cache_Controller.Data_Exclusive::total      1267756                      
system.ruby.L1Cache_Controller.DataS_fromL1 |          16      0.02%      0.02% |       37732     38.57%     38.58% |       60091     61.42%    100.00%
system.ruby.L1Cache_Controller.DataS_fromL1::total        97839                      
system.ruby.L1Cache_Controller.Data_all_Acks |      572533     96.63%     96.63% |        7060      1.19%     97.82% |       12893      2.18%    100.00%
system.ruby.L1Cache_Controller.Data_all_Acks::total       592486                      
system.ruby.L1Cache_Controller.L0_Ack    |        2316     18.62%     18.62% |        4952     39.82%     58.44% |        5169     41.56%    100.00%
system.ruby.L1Cache_Controller.L0_Ack::total        12437                      
system.ruby.L1Cache_Controller.Ack       |          31      0.03%      0.03% |       40705     40.44%     40.47% |       59917     59.53%    100.00%
system.ruby.L1Cache_Controller.Ack::total       100653                      
system.ruby.L1Cache_Controller.Ack_all   |          26      0.03%      0.03% |       40705     40.44%     40.47% |       59917     59.53%    100.00%
system.ruby.L1Cache_Controller.Ack_all::total       100648                      
system.ruby.L1Cache_Controller.WB_Ack    |      571829     31.15%     31.15% |      616374     33.58%     64.73% |      647539     35.27%    100.00%
system.ruby.L1Cache_Controller.WB_Ack::total      1835742                      
system.ruby.L1Cache_Controller.NP.Load   |        4177      0.31%      0.31% |      679208     49.79%     50.10% |      680783     49.90%    100.00%
system.ruby.L1Cache_Controller.NP.Load::total      1364168                      
system.ruby.L1Cache_Controller.NP.Store  |      572521     99.99%     99.99% |          22      0.00%     99.99% |          38      0.01%    100.00%
system.ruby.L1Cache_Controller.NP.Store::total       572581                      
system.ruby.L1Cache_Controller.NP.Inv    |           0      0.00%      0.00% |          38     57.58%     57.58% |          28     42.42%    100.00%
system.ruby.L1Cache_Controller.NP.Inv::total           66                      
system.ruby.L1Cache_Controller.I.Load    |           0      0.00%      0.00% |        6030     65.66%     65.66% |        3154     34.34%    100.00%
system.ruby.L1Cache_Controller.I.Load::total         9184                      
system.ruby.L1Cache_Controller.I.L1_Replacement |           0      0.00%      0.00% |        2987     99.90%     99.90% |           3      0.10%    100.00%
system.ruby.L1Cache_Controller.I.L1_Replacement::total         2990                      
system.ruby.L1Cache_Controller.S.Load    |           3     37.50%     37.50% |           3     37.50%     75.00% |           2     25.00%    100.00%
system.ruby.L1Cache_Controller.S.Load::total            8                      
system.ruby.L1Cache_Controller.S.Store   |          26      0.02%      0.02% |       43838     38.87%     38.90% |       68909     61.10%    100.00%
system.ruby.L1Cache_Controller.S.Store::total       112773                      
system.ruby.L1Cache_Controller.S.L0_Invalidate_Own |           0      0.00%      0.00% |        1005     50.43%     50.43% |         988     49.57%    100.00%
system.ruby.L1Cache_Controller.S.L0_Invalidate_Own::total         1993                      
system.ruby.L1Cache_Controller.S.L0_Invalidate_Else |           3      7.32%      7.32% |           5     12.20%     19.51% |          33     80.49%    100.00%
system.ruby.L1Cache_Controller.S.L0_Invalidate_Else::total           41                      
system.ruby.L1Cache_Controller.SS.Load   |          13      0.14%      0.14% |        3247     34.94%     35.08% |        6033     64.92%    100.00%
system.ruby.L1Cache_Controller.SS.Load::total         9293                      
system.ruby.L1Cache_Controller.SS.Store  |           0      0.00%      0.00% |          20     86.96%     86.96% |           3     13.04%    100.00%
system.ruby.L1Cache_Controller.SS.Store::total           23                      
system.ruby.L1Cache_Controller.SS.Inv    |        3975      4.49%      4.49% |       56430     63.78%     68.27% |       28074     31.73%    100.00%
system.ruby.L1Cache_Controller.SS.Inv::total        88479                      
system.ruby.L1Cache_Controller.SS.L1_Replacement |           0      0.00%      0.00% |        1029     50.79%     50.79% |         997     49.21%    100.00%
system.ruby.L1Cache_Controller.SS.L1_Replacement::total         2026                      
system.ruby.L1Cache_Controller.E.WriteBack |         862      0.07%      0.07% |      620687     50.49%     50.56% |      607714     49.44%    100.00%
system.ruby.L1Cache_Controller.E.WriteBack::total      1229263                      
system.ruby.L1Cache_Controller.E.L0_Invalidate_Own |        2634     12.96%     12.96% |        8705     42.84%     55.80% |        8983     44.20%    100.00%
system.ruby.L1Cache_Controller.E.L0_Invalidate_Own::total        20322                      
system.ruby.L1Cache_Controller.E.L0_Invalidate_Else |          53      0.30%      0.30% |       14068     80.82%     81.12% |        3286     18.88%    100.00%
system.ruby.L1Cache_Controller.E.L0_Invalidate_Else::total        17407                      
system.ruby.L1Cache_Controller.EE.Load   |           0      0.00%      0.00% |           1    100.00%    100.00% |           0      0.00%    100.00%
system.ruby.L1Cache_Controller.EE.Load::total            1                      
system.ruby.L1Cache_Controller.EE.Inv    |          41     24.70%     24.70% |           0      0.00%     24.70% |         125     75.30%    100.00%
system.ruby.L1Cache_Controller.EE.Inv::total          166                      
system.ruby.L1Cache_Controller.EE.L1_Replacement |        2217     22.48%     22.48% |        3672     37.23%     59.71% |        3974     40.29%    100.00%
system.ruby.L1Cache_Controller.EE.L1_Replacement::total         9863                      
system.ruby.L1Cache_Controller.EE.Fwd_GETX |           1    100.00%    100.00% |           0      0.00%    100.00% |           0      0.00%    100.00%
system.ruby.L1Cache_Controller.EE.Fwd_GETX::total            1                      
system.ruby.L1Cache_Controller.EE.Fwd_GETS |           5     13.89%     13.89% |          19     52.78%     66.67% |          12     33.33%    100.00%
system.ruby.L1Cache_Controller.EE.Fwd_GETS::total           36                      
system.ruby.L1Cache_Controller.M.WriteBack |      571610     77.35%     77.35% |       71732      9.71%     87.05% |       95688     12.95%    100.00%
system.ruby.L1Cache_Controller.M.WriteBack::total       739030                      
system.ruby.L1Cache_Controller.M.L0_Invalidate_Own |         467     64.59%     64.59% |         219     30.29%     94.88% |          37      5.12%    100.00%
system.ruby.L1Cache_Controller.M.L0_Invalidate_Own::total          723                      
system.ruby.L1Cache_Controller.M.L0_Invalidate_Else |         503      2.27%      2.27% |       12504     56.32%     58.58% |        9195     41.42%    100.00%
system.ruby.L1Cache_Controller.M.L0_Invalidate_Else::total        22202                      
system.ruby.L1Cache_Controller.MM.Load   |         126      0.16%      0.16% |       40620     52.61%     52.77% |       36464     47.23%    100.00%
system.ruby.L1Cache_Controller.MM.Load::total        77210                      
system.ruby.L1Cache_Controller.MM.Store  |          14     82.35%     82.35% |           1      5.88%     88.24% |           2     11.76%    100.00%
system.ruby.L1Cache_Controller.MM.Store::total           17                      
system.ruby.L1Cache_Controller.MM.Inv    |          23     65.71%     65.71% |           7     20.00%     85.71% |           5     14.29%    100.00%
system.ruby.L1Cache_Controller.MM.Inv::total           35                      
system.ruby.L1Cache_Controller.MM.L1_Replacement |      569612     31.20%     31.20% |      612702     33.56%     64.75% |      643565     35.25%    100.00%
system.ruby.L1Cache_Controller.MM.L1_Replacement::total      1825879                      
system.ruby.L1Cache_Controller.MM.Fwd_GETX |           0      0.00%      0.00% |        9020     74.07%     74.07% |        3158     25.93%    100.00%
system.ruby.L1Cache_Controller.MM.Fwd_GETX::total        12178                      
system.ruby.L1Cache_Controller.MM.Fwd_GETS |        4011      4.10%      4.10% |       59706     61.05%     65.15% |       34076     34.85%    100.00%
system.ruby.L1Cache_Controller.MM.Fwd_GETS::total        97793                      
system.ruby.L1Cache_Controller.IS.Data_Exclusive |        4149      0.33%      0.33% |      643621     50.77%     51.10% |      619986     48.90%    100.00%
system.ruby.L1Cache_Controller.IS.Data_Exclusive::total      1267756                      
system.ruby.L1Cache_Controller.IS.DataS_fromL1 |          16      0.02%      0.02% |       37732     38.57%     38.58% |       60091     61.42%    100.00%
system.ruby.L1Cache_Controller.IS.DataS_fromL1::total        97839                      
system.ruby.L1Cache_Controller.IS.Data_all_Acks |          12      0.15%      0.15% |        3885     50.08%     50.24% |        3860     49.76%    100.00%
system.ruby.L1Cache_Controller.IS.Data_all_Acks::total         7757                      
system.ruby.L1Cache_Controller.IM.Data   |           0      0.00%      0.00% |           1    100.00%    100.00% |           0      0.00%    100.00%
system.ruby.L1Cache_Controller.IM.Data::total            1                      
system.ruby.L1Cache_Controller.IM.Data_all_Acks |      572521     97.91%     97.91% |        3175      0.54%     98.46% |        9033      1.54%    100.00%
system.ruby.L1Cache_Controller.IM.Data_all_Acks::total       584729                      
system.ruby.L1Cache_Controller.SM.Inv    |           0      0.00%      0.00% |        3154     25.96%     25.96% |        8995     74.04%    100.00%
system.ruby.L1Cache_Controller.SM.Inv::total        12149                      
system.ruby.L1Cache_Controller.SM.Ack    |          31      0.03%      0.03% |       40705     40.44%     40.47% |       59917     59.53%    100.00%
system.ruby.L1Cache_Controller.SM.Ack::total       100653                      
system.ruby.L1Cache_Controller.SM.Ack_all |          26      0.03%      0.03% |       40705     40.44%     40.47% |       59917     59.53%    100.00%
system.ruby.L1Cache_Controller.SM.Ack_all::total       100648                      
system.ruby.L1Cache_Controller.M_I.Fwd_GETS |           0      0.00%      0.00% |           6     60.00%     60.00% |           4     40.00%    100.00%
system.ruby.L1Cache_Controller.M_I.Fwd_GETS::total           10                      
system.ruby.L1Cache_Controller.M_I.WB_Ack |      571829     31.15%     31.15% |      616368     33.58%     64.73% |      647535     35.27%    100.00%
system.ruby.L1Cache_Controller.M_I.WB_Ack::total      1835732                      
system.ruby.L1Cache_Controller.SINK_WB_ACK.WB_Ack |           0      0.00%      0.00% |           6     60.00%     60.00% |           4     40.00%    100.00%
system.ruby.L1Cache_Controller.SINK_WB_ACK.WB_Ack::total           10                      
system.ruby.L1Cache_Controller.S_IL0.Store |           0      0.00%      0.00% |           3     13.04%     13.04% |          20     86.96%    100.00%
system.ruby.L1Cache_Controller.S_IL0.Store::total           23                      
system.ruby.L1Cache_Controller.S_IL0.L0_Invalidate_Own |           0      0.00%      0.00% |        1005     50.43%     50.43% |         988     49.57%    100.00%
system.ruby.L1Cache_Controller.S_IL0.L0_Invalidate_Own::total         1993                      
system.ruby.L1Cache_Controller.S_IL0.L0_Invalidate_Else |           3      7.32%      7.32% |           5     12.20%     19.51% |          33     80.49%    100.00%
system.ruby.L1Cache_Controller.S_IL0.L0_Invalidate_Else::total           41                      
system.ruby.L1Cache_Controller.S_IL0.L0_Ack |           3      0.15%      0.15% |        1010     49.66%     49.80% |        1021     50.20%    100.00%
system.ruby.L1Cache_Controller.S_IL0.L0_Ack::total         2034                      
system.ruby.L1Cache_Controller.E_IL0.WriteBack |           0      0.00%      0.00% |           2    100.00%    100.00% |           0      0.00%    100.00%
system.ruby.L1Cache_Controller.E_IL0.WriteBack::total            2                      
system.ruby.L1Cache_Controller.E_IL0.L0_DataAck |         423      1.53%      1.53% |       19079     68.98%     70.51% |        8158     29.49%    100.00%
system.ruby.L1Cache_Controller.E_IL0.L0_DataAck::total        27660                      
system.ruby.L1Cache_Controller.E_IL0.L0_Invalidate_Own |        2634     12.96%     12.96% |        8705     42.84%     55.80% |        8983     44.20%    100.00%
system.ruby.L1Cache_Controller.E_IL0.L0_Invalidate_Own::total        20322                      
system.ruby.L1Cache_Controller.E_IL0.L0_Invalidate_Else |          53      0.30%      0.30% |       14068     80.82%     81.12% |        3286     18.88%    100.00%
system.ruby.L1Cache_Controller.E_IL0.L0_Invalidate_Else::total        17407                      
system.ruby.L1Cache_Controller.E_IL0.L0_Ack |        2264     22.49%     22.49% |        3692     36.67%     59.16% |        4111     40.84%    100.00%
system.ruby.L1Cache_Controller.E_IL0.L0_Ack::total        10067                      
system.ruby.L1Cache_Controller.M_IL0.L0_DataAck |         921      4.08%      4.08% |       12475     55.22%     59.30% |        9195     40.70%    100.00%
system.ruby.L1Cache_Controller.M_IL0.L0_DataAck::total        22591                      
system.ruby.L1Cache_Controller.M_IL0.L0_Invalidate_Own |         467     64.59%     64.59% |         219     30.29%     94.88% |          37      5.12%    100.00%
system.ruby.L1Cache_Controller.M_IL0.L0_Invalidate_Own::total          723                      
system.ruby.L1Cache_Controller.M_IL0.L0_Invalidate_Else |         503      2.27%      2.27% |       12504     56.32%     58.58% |        9195     41.42%    100.00%
system.ruby.L1Cache_Controller.M_IL0.L0_Invalidate_Else::total        22202                      
system.ruby.L1Cache_Controller.M_IL0.L0_Ack |          49     14.67%     14.67% |         248     74.25%     88.92% |          37     11.08%    100.00%
system.ruby.L1Cache_Controller.M_IL0.L0_Ack::total          334                      
system.ruby.L1Cache_Controller.MM_IL0.Fwd_GETS |           0      0.00%      0.00% |           2    100.00%    100.00% |           0      0.00%    100.00%
system.ruby.L1Cache_Controller.MM_IL0.Fwd_GETS::total            2                      
system.ruby.L1Cache_Controller.MM_IL0.L0_Ack |           0      0.00%      0.00% |           2    100.00%    100.00% |           0      0.00%    100.00%
system.ruby.L1Cache_Controller.MM_IL0.L0_Ack::total            2                      
system.ruby.L2Cache_Controller.L1_GETS        1376309      0.00%      0.00%
system.ruby.L2Cache_Controller.L1_GETX         584755      0.00%      0.00%
system.ruby.L2Cache_Controller.L1_UPGRADE       112796      0.00%      0.00%
system.ruby.L2Cache_Controller.L1_PUTX        1835752      0.00%      0.00%
system.ruby.L2Cache_Controller.L2_Replacement       352552      0.00%      0.00%
system.ruby.L2Cache_Controller.L2_Replacement_clean        57166      0.00%      0.00%
system.ruby.L2Cache_Controller.Mem_Data        737398      0.00%      0.00%
system.ruby.L2Cache_Controller.Mem_Ack         409718      0.00%      0.00%
system.ruby.L2Cache_Controller.WB_Data          97854      0.00%      0.00%
system.ruby.L2Cache_Controller.WB_Data_clean           20      0.00%      0.00%
system.ruby.L2Cache_Controller.Ack                 22      0.00%      0.00%
system.ruby.L2Cache_Controller.Ack_all            184      0.00%      0.00%
system.ruby.L2Cache_Controller.Unblock          97839      0.00%      0.00%
system.ruby.L2Cache_Controller.Exclusive_Unblock      1953133      0.00%      0.00%
system.ruby.L2Cache_Controller.NP.L1_GETS       287046      0.00%      0.00%
system.ruby.L2Cache_Controller.NP.L1_GETX       450352      0.00%      0.00%
system.ruby.L2Cache_Controller.SS.L1_GETS         1969      0.00%      0.00%
system.ruby.L2Cache_Controller.SS.L1_GETX            1      0.00%      0.00%
system.ruby.L2Cache_Controller.SS.L1_UPGRADE       100647      0.00%      0.00%
system.ruby.L2Cache_Controller.SS.L1_PUTX           10      0.00%      0.00%
system.ruby.L2Cache_Controller.SS.L2_Replacement           16      0.00%      0.00%
system.ruby.L2Cache_Controller.SS.L2_Replacement_clean            2      0.00%      0.00%
system.ruby.L2Cache_Controller.M.L1_GETS       983604      0.00%      0.00%
system.ruby.L2Cache_Controller.M.L1_GETX       122198      0.00%      0.00%
system.ruby.L2Cache_Controller.M.L2_Replacement       352347      0.00%      0.00%
system.ruby.L2Cache_Controller.M.L2_Replacement_clean        57152      0.00%      0.00%
system.ruby.L2Cache_Controller.MT.L1_GETS        97839      0.00%      0.00%
system.ruby.L2Cache_Controller.MT.L1_GETX        12179      0.00%      0.00%
system.ruby.L2Cache_Controller.MT.L1_PUTX      1835732      0.00%      0.00%
system.ruby.L2Cache_Controller.MT.L2_Replacement          189      0.00%      0.00%
system.ruby.L2Cache_Controller.MT.L2_Replacement_clean           12      0.00%      0.00%
system.ruby.L2Cache_Controller.M_I.L1_GETS            1      0.00%      0.00%
system.ruby.L2Cache_Controller.M_I.L1_GETX            1      0.00%      0.00%
system.ruby.L2Cache_Controller.M_I.Mem_Ack       409718      0.00%      0.00%
system.ruby.L2Cache_Controller.MT_I.WB_Data           18      0.00%      0.00%
system.ruby.L2Cache_Controller.MT_I.WB_Data_clean            6      0.00%      0.00%
system.ruby.L2Cache_Controller.MT_I.Ack_all          165      0.00%      0.00%
system.ruby.L2Cache_Controller.MCT_I.WB_Data            8      0.00%      0.00%
system.ruby.L2Cache_Controller.MCT_I.WB_Data_clean            3      0.00%      0.00%
system.ruby.L2Cache_Controller.MCT_I.Ack_all            1      0.00%      0.00%
system.ruby.L2Cache_Controller.I_I.Ack              3      0.00%      0.00%
system.ruby.L2Cache_Controller.I_I.Ack_all            2      0.00%      0.00%
system.ruby.L2Cache_Controller.S_I.Ack             19      0.00%      0.00%
system.ruby.L2Cache_Controller.S_I.Ack_all           16      0.00%      0.00%
system.ruby.L2Cache_Controller.ISS.L1_GETS         2894      0.00%      0.00%
system.ruby.L2Cache_Controller.ISS.Mem_Data       284152      0.00%      0.00%
system.ruby.L2Cache_Controller.IS.Mem_Data         2894      0.00%      0.00%
system.ruby.L2Cache_Controller.IM.L1_GETX            1      0.00%      0.00%
system.ruby.L2Cache_Controller.IM.Mem_Data       450352      0.00%      0.00%
system.ruby.L2Cache_Controller.SS_MB.L1_GETS            2      0.00%      0.00%
system.ruby.L2Cache_Controller.SS_MB.L1_GETX           23      0.00%      0.00%
system.ruby.L2Cache_Controller.SS_MB.L1_UPGRADE        12149      0.00%      0.00%
system.ruby.L2Cache_Controller.SS_MB.Exclusive_Unblock       100648      0.00%      0.00%
system.ruby.L2Cache_Controller.MT_MB.L1_GETS         2954      0.00%      0.00%
system.ruby.L2Cache_Controller.MT_MB.Exclusive_Unblock      1852485      0.00%      0.00%
system.ruby.L2Cache_Controller.MT_IIB.L1_PUTX           10      0.00%      0.00%
system.ruby.L2Cache_Controller.MT_IIB.WB_Data        97629      0.00%      0.00%
system.ruby.L2Cache_Controller.MT_IIB.WB_Data_clean           11      0.00%      0.00%
system.ruby.L2Cache_Controller.MT_IIB.Unblock          199      0.00%      0.00%
system.ruby.L2Cache_Controller.MT_IB.WB_Data          199      0.00%      0.00%
system.ruby.L2Cache_Controller.MT_SB.Unblock        97640      0.00%      0.00%

---------- End Simulation Statistics   ----------
