
---------- Begin Simulation Statistics ----------
sim_seconds                                  0.933319                       # Number of seconds simulated
sim_ticks                                933318889000                       # Number of ticks simulated
final_tick                               933318889000                       # Number of ticks from beginning of simulation (restored from checkpoints and never reset)
sim_freq                                 1000000000000                       # Frequency of simulated ticks
host_inst_rate                                 150182                       # Simulator instruction rate (inst/s)
host_op_rate                                   401275                       # Simulator op (including micro ops) rate (op/s)
host_tick_rate                              227185105                       # Simulator tick rate (ticks/s)
host_mem_usage                                 939316                       # Number of bytes of host memory used
host_seconds                                  4108.19                       # Real time elapsed on the host
sim_insts                                   616973680                       # Number of instructions simulated
sim_ops                                    1648513294                       # Number of ops (including micro ops) simulated
system.voltage_domain.voltage                       1                       # Voltage in Volts
system.clk_domain.clock                          1000                       # Clock period in ticks
system.mem_ctrls.bytes_read::ruby.dir_cntrl0     29620160                       # Number of bytes read from this memory
system.mem_ctrls.bytes_read::total           29620160                       # Number of bytes read from this memory
system.mem_ctrls.bytes_written::ruby.dir_cntrl0     12508096                       # Number of bytes written to this memory
system.mem_ctrls.bytes_written::total        12508096                       # Number of bytes written to this memory
system.mem_ctrls.num_reads::ruby.dir_cntrl0       462815                       # Number of read requests responded to by this memory
system.mem_ctrls.num_reads::total              462815                       # Number of read requests responded to by this memory
system.mem_ctrls.num_writes::ruby.dir_cntrl0       195439                       # Number of write requests responded to by this memory
system.mem_ctrls.num_writes::total             195439                       # Number of write requests responded to by this memory
system.mem_ctrls.bw_read::ruby.dir_cntrl0     31736377                       # Total read bandwidth from this memory (bytes/s)
system.mem_ctrls.bw_read::total              31736377                       # Total read bandwidth from this memory (bytes/s)
system.mem_ctrls.bw_write::ruby.dir_cntrl0     13401739                       # Write bandwidth from this memory (bytes/s)
system.mem_ctrls.bw_write::total             13401739                       # Write bandwidth from this memory (bytes/s)
system.mem_ctrls.bw_total::ruby.dir_cntrl0     45138116                       # Total bandwidth to/from this memory (bytes/s)
system.mem_ctrls.bw_total::total             45138116                       # Total bandwidth to/from this memory (bytes/s)
system.mem_ctrls.readReqs                      462815                       # Number of read requests accepted
system.mem_ctrls.writeReqs                     195439                       # Number of write requests accepted
system.mem_ctrls.readBursts                    462815                       # Number of DRAM read bursts, including those serviced by the write queue
system.mem_ctrls.writeBursts                   195439                       # Number of DRAM write bursts, including those merged in the write queue
system.mem_ctrls.bytesReadDRAM               29619712                       # Total number of bytes read from DRAM
system.mem_ctrls.bytesReadWrQ                     448                       # Total number of bytes read from write queue
system.mem_ctrls.bytesWritten                12506048                       # Total number of bytes written to DRAM
system.mem_ctrls.bytesReadSys                29620160                       # Total read bytes from the system interface side
system.mem_ctrls.bytesWrittenSys             12508096                       # Total written bytes from the system interface side
system.mem_ctrls.servicedByWrQ                      7                       # Number of DRAM read bursts serviced by the write queue
system.mem_ctrls.mergedWrBursts                     0                       # Number of DRAM write bursts merged with an existing one
system.mem_ctrls.neitherReadNorWriteReqs            0                       # Number of requests that are neither read nor write
system.mem_ctrls.perBankRdBursts::0             28727                       # Per bank write bursts
system.mem_ctrls.perBankRdBursts::1             28190                       # Per bank write bursts
system.mem_ctrls.perBankRdBursts::2             28557                       # Per bank write bursts
system.mem_ctrls.perBankRdBursts::3             28246                       # Per bank write bursts
system.mem_ctrls.perBankRdBursts::4             29063                       # Per bank write bursts
system.mem_ctrls.perBankRdBursts::5             29179                       # Per bank write bursts
system.mem_ctrls.perBankRdBursts::6             29384                       # Per bank write bursts
system.mem_ctrls.perBankRdBursts::7             29195                       # Per bank write bursts
system.mem_ctrls.perBankRdBursts::8             29864                       # Per bank write bursts
system.mem_ctrls.perBankRdBursts::9             29963                       # Per bank write bursts
system.mem_ctrls.perBankRdBursts::10            29404                       # Per bank write bursts
system.mem_ctrls.perBankRdBursts::11            29044                       # Per bank write bursts
system.mem_ctrls.perBankRdBursts::12            29193                       # Per bank write bursts
system.mem_ctrls.perBankRdBursts::13            28606                       # Per bank write bursts
system.mem_ctrls.perBankRdBursts::14            28489                       # Per bank write bursts
system.mem_ctrls.perBankRdBursts::15            27704                       # Per bank write bursts
system.mem_ctrls.perBankWrBursts::0             11900                       # Per bank write bursts
system.mem_ctrls.perBankWrBursts::1             11493                       # Per bank write bursts
system.mem_ctrls.perBankWrBursts::2             11989                       # Per bank write bursts
system.mem_ctrls.perBankWrBursts::3             11707                       # Per bank write bursts
system.mem_ctrls.perBankWrBursts::4             12380                       # Per bank write bursts
system.mem_ctrls.perBankWrBursts::5             12170                       # Per bank write bursts
system.mem_ctrls.perBankWrBursts::6             12584                       # Per bank write bursts
system.mem_ctrls.perBankWrBursts::7             12366                       # Per bank write bursts
system.mem_ctrls.perBankWrBursts::8             13392                       # Per bank write bursts
system.mem_ctrls.perBankWrBursts::9             13198                       # Per bank write bursts
system.mem_ctrls.perBankWrBursts::10            12639                       # Per bank write bursts
system.mem_ctrls.perBankWrBursts::11            12283                       # Per bank write bursts
system.mem_ctrls.perBankWrBursts::12            12463                       # Per bank write bursts
system.mem_ctrls.perBankWrBursts::13            11865                       # Per bank write bursts
system.mem_ctrls.perBankWrBursts::14            11833                       # Per bank write bursts
system.mem_ctrls.perBankWrBursts::15            11145                       # Per bank write bursts
system.mem_ctrls.numRdRetry                         0                       # Number of times read queue was full causing retry
system.mem_ctrls.numWrRetry                         0                       # Number of times write queue was full causing retry
system.mem_ctrls.totGap                  933318828000                       # Total gap between requests
system.mem_ctrls.readPktSize::0                     0                       # Read request sizes (log2)
system.mem_ctrls.readPktSize::1                     0                       # Read request sizes (log2)
system.mem_ctrls.readPktSize::2                     0                       # Read request sizes (log2)
system.mem_ctrls.readPktSize::3                     0                       # Read request sizes (log2)
system.mem_ctrls.readPktSize::4                     0                       # Read request sizes (log2)
system.mem_ctrls.readPktSize::5                     0                       # Read request sizes (log2)
system.mem_ctrls.readPktSize::6                462815                       # Read request sizes (log2)
system.mem_ctrls.writePktSize::0                    0                       # Write request sizes (log2)
system.mem_ctrls.writePktSize::1                    0                       # Write request sizes (log2)
system.mem_ctrls.writePktSize::2                    0                       # Write request sizes (log2)
system.mem_ctrls.writePktSize::3                    0                       # Write request sizes (log2)
system.mem_ctrls.writePktSize::4                    0                       # Write request sizes (log2)
system.mem_ctrls.writePktSize::5                    0                       # Write request sizes (log2)
system.mem_ctrls.writePktSize::6               195439                       # Write request sizes (log2)
system.mem_ctrls.rdQLenPdf::0                  353724                       # What read queue length does an incoming req see
system.mem_ctrls.rdQLenPdf::1                   41431                       # What read queue length does an incoming req see
system.mem_ctrls.rdQLenPdf::2                   29501                       # What read queue length does an incoming req see
system.mem_ctrls.rdQLenPdf::3                   18116                       # What read queue length does an incoming req see
system.mem_ctrls.rdQLenPdf::4                    9715                       # What read queue length does an incoming req see
system.mem_ctrls.rdQLenPdf::5                    5519                       # What read queue length does an incoming req see
system.mem_ctrls.rdQLenPdf::6                    3166                       # What read queue length does an incoming req see
system.mem_ctrls.rdQLenPdf::7                    1636                       # What read queue length does an incoming req see
system.mem_ctrls.rdQLenPdf::8                       0                       # What read queue length does an incoming req see
system.mem_ctrls.rdQLenPdf::9                       0                       # What read queue length does an incoming req see
system.mem_ctrls.rdQLenPdf::10                      0                       # What read queue length does an incoming req see
system.mem_ctrls.rdQLenPdf::11                      0                       # What read queue length does an incoming req see
system.mem_ctrls.rdQLenPdf::12                      0                       # What read queue length does an incoming req see
system.mem_ctrls.rdQLenPdf::13                      0                       # What read queue length does an incoming req see
system.mem_ctrls.rdQLenPdf::14                      0                       # What read queue length does an incoming req see
system.mem_ctrls.rdQLenPdf::15                      0                       # What read queue length does an incoming req see
system.mem_ctrls.rdQLenPdf::16                      0                       # What read queue length does an incoming req see
system.mem_ctrls.rdQLenPdf::17                      0                       # What read queue length does an incoming req see
system.mem_ctrls.rdQLenPdf::18                      0                       # What read queue length does an incoming req see
system.mem_ctrls.rdQLenPdf::19                      0                       # What read queue length does an incoming req see
system.mem_ctrls.rdQLenPdf::20                      0                       # What read queue length does an incoming req see
system.mem_ctrls.rdQLenPdf::21                      0                       # What read queue length does an incoming req see
system.mem_ctrls.rdQLenPdf::22                      0                       # What read queue length does an incoming req see
system.mem_ctrls.rdQLenPdf::23                      0                       # What read queue length does an incoming req see
system.mem_ctrls.rdQLenPdf::24                      0                       # What read queue length does an incoming req see
system.mem_ctrls.rdQLenPdf::25                      0                       # What read queue length does an incoming req see
system.mem_ctrls.rdQLenPdf::26                      0                       # What read queue length does an incoming req see
system.mem_ctrls.rdQLenPdf::27                      0                       # What read queue length does an incoming req see
system.mem_ctrls.rdQLenPdf::28                      0                       # What read queue length does an incoming req see
system.mem_ctrls.rdQLenPdf::29                      0                       # What read queue length does an incoming req see
system.mem_ctrls.rdQLenPdf::30                      0                       # What read queue length does an incoming req see
system.mem_ctrls.rdQLenPdf::31                      0                       # What read queue length does an incoming req see
system.mem_ctrls.wrQLenPdf::0                       1                       # What write queue length does an incoming req see
system.mem_ctrls.wrQLenPdf::1                       1                       # What write queue length does an incoming req see
system.mem_ctrls.wrQLenPdf::2                       1                       # What write queue length does an incoming req see
system.mem_ctrls.wrQLenPdf::3                       1                       # What write queue length does an incoming req see
system.mem_ctrls.wrQLenPdf::4                       1                       # What write queue length does an incoming req see
system.mem_ctrls.wrQLenPdf::5                       1                       # What write queue length does an incoming req see
system.mem_ctrls.wrQLenPdf::6                       1                       # What write queue length does an incoming req see
system.mem_ctrls.wrQLenPdf::7                       1                       # What write queue length does an incoming req see
system.mem_ctrls.wrQLenPdf::8                       1                       # What write queue length does an incoming req see
system.mem_ctrls.wrQLenPdf::9                       1                       # What write queue length does an incoming req see
system.mem_ctrls.wrQLenPdf::10                      1                       # What write queue length does an incoming req see
system.mem_ctrls.wrQLenPdf::11                      1                       # What write queue length does an incoming req see
system.mem_ctrls.wrQLenPdf::12                      1                       # What write queue length does an incoming req see
system.mem_ctrls.wrQLenPdf::13                      1                       # What write queue length does an incoming req see
system.mem_ctrls.wrQLenPdf::14                      1                       # What write queue length does an incoming req see
system.mem_ctrls.wrQLenPdf::15                    504                       # What write queue length does an incoming req see
system.mem_ctrls.wrQLenPdf::16                    564                       # What write queue length does an incoming req see
system.mem_ctrls.wrQLenPdf::17                   3637                       # What write queue length does an incoming req see
system.mem_ctrls.wrQLenPdf::18                   5609                       # What write queue length does an incoming req see
system.mem_ctrls.wrQLenPdf::19                   7742                       # What write queue length does an incoming req see
system.mem_ctrls.wrQLenPdf::20                   9996                       # What write queue length does an incoming req see
system.mem_ctrls.wrQLenPdf::21                  11603                       # What write queue length does an incoming req see
system.mem_ctrls.wrQLenPdf::22                  12669                       # What write queue length does an incoming req see
system.mem_ctrls.wrQLenPdf::23                  13569                       # What write queue length does an incoming req see
system.mem_ctrls.wrQLenPdf::24                  13841                       # What write queue length does an incoming req see
system.mem_ctrls.wrQLenPdf::25                  14160                       # What write queue length does an incoming req see
system.mem_ctrls.wrQLenPdf::26                  14607                       # What write queue length does an incoming req see
system.mem_ctrls.wrQLenPdf::27                  14039                       # What write queue length does an incoming req see
system.mem_ctrls.wrQLenPdf::28                  13711                       # What write queue length does an incoming req see
system.mem_ctrls.wrQLenPdf::29                  13759                       # What write queue length does an incoming req see
system.mem_ctrls.wrQLenPdf::30                  13952                       # What write queue length does an incoming req see
system.mem_ctrls.wrQLenPdf::31                  15352                       # What write queue length does an incoming req see
system.mem_ctrls.wrQLenPdf::32                  14662                       # What write queue length does an incoming req see
system.mem_ctrls.wrQLenPdf::33                    664                       # What write queue length does an incoming req see
system.mem_ctrls.wrQLenPdf::34                    311                       # What write queue length does an incoming req see
system.mem_ctrls.wrQLenPdf::35                    173                       # What write queue length does an incoming req see
system.mem_ctrls.wrQLenPdf::36                    103                       # What write queue length does an incoming req see
system.mem_ctrls.wrQLenPdf::37                     61                       # What write queue length does an incoming req see
system.mem_ctrls.wrQLenPdf::38                     46                       # What write queue length does an incoming req see
system.mem_ctrls.wrQLenPdf::39                     34                       # What write queue length does an incoming req see
system.mem_ctrls.wrQLenPdf::40                     11                       # What write queue length does an incoming req see
system.mem_ctrls.wrQLenPdf::41                     10                       # What write queue length does an incoming req see
system.mem_ctrls.wrQLenPdf::42                      6                       # What write queue length does an incoming req see
system.mem_ctrls.wrQLenPdf::43                      3                       # What write queue length does an incoming req see
system.mem_ctrls.wrQLenPdf::44                      6                       # What write queue length does an incoming req see
system.mem_ctrls.wrQLenPdf::45                      4                       # What write queue length does an incoming req see
system.mem_ctrls.wrQLenPdf::46                      2                       # What write queue length does an incoming req see
system.mem_ctrls.wrQLenPdf::47                      3                       # What write queue length does an incoming req see
system.mem_ctrls.wrQLenPdf::48                      2                       # What write queue length does an incoming req see
system.mem_ctrls.wrQLenPdf::49                      2                       # What write queue length does an incoming req see
system.mem_ctrls.wrQLenPdf::50                      2                       # What write queue length does an incoming req see
system.mem_ctrls.wrQLenPdf::51                      1                       # What write queue length does an incoming req see
system.mem_ctrls.wrQLenPdf::52                      1                       # What write queue length does an incoming req see
system.mem_ctrls.wrQLenPdf::53                      1                       # What write queue length does an incoming req see
system.mem_ctrls.wrQLenPdf::54                      2                       # What write queue length does an incoming req see
system.mem_ctrls.wrQLenPdf::55                      0                       # What write queue length does an incoming req see
system.mem_ctrls.wrQLenPdf::56                      0                       # What write queue length does an incoming req see
system.mem_ctrls.wrQLenPdf::57                      0                       # What write queue length does an incoming req see
system.mem_ctrls.wrQLenPdf::58                      0                       # What write queue length does an incoming req see
system.mem_ctrls.wrQLenPdf::59                      0                       # What write queue length does an incoming req see
system.mem_ctrls.wrQLenPdf::60                      0                       # What write queue length does an incoming req see
system.mem_ctrls.wrQLenPdf::61                      0                       # What write queue length does an incoming req see
system.mem_ctrls.wrQLenPdf::62                      0                       # What write queue length does an incoming req see
system.mem_ctrls.wrQLenPdf::63                      0                       # What write queue length does an incoming req see
system.mem_ctrls.bytesPerActivate::samples       180274                       # Bytes accessed per row activation
system.mem_ctrls.bytesPerActivate::mean    233.665997                       # Bytes accessed per row activation
system.mem_ctrls.bytesPerActivate::gmean   176.136491                       # Bytes accessed per row activation
system.mem_ctrls.bytesPerActivate::stdev   185.119520                       # Bytes accessed per row activation
system.mem_ctrls.bytesPerActivate::0-127        54907     30.46%     30.46% # Bytes accessed per row activation
system.mem_ctrls.bytesPerActivate::128-255        26563     14.73%     45.19% # Bytes accessed per row activation
system.mem_ctrls.bytesPerActivate::256-383        75769     42.03%     87.22% # Bytes accessed per row activation
system.mem_ctrls.bytesPerActivate::384-511         8711      4.83%     92.05% # Bytes accessed per row activation
system.mem_ctrls.bytesPerActivate::512-639         5480      3.04%     95.09% # Bytes accessed per row activation
system.mem_ctrls.bytesPerActivate::640-767         3096      1.72%     96.81% # Bytes accessed per row activation
system.mem_ctrls.bytesPerActivate::768-895         1776      0.99%     97.80% # Bytes accessed per row activation
system.mem_ctrls.bytesPerActivate::896-1023         1144      0.63%     98.43% # Bytes accessed per row activation
system.mem_ctrls.bytesPerActivate::1024-1151         2828      1.57%    100.00% # Bytes accessed per row activation
system.mem_ctrls.bytesPerActivate::total       180274                       # Bytes accessed per row activation
system.mem_ctrls.rdPerTurnAround::samples        12127                       # Reads before turning the bus around for writes
system.mem_ctrls.rdPerTurnAround::mean      38.162118                       # Reads before turning the bus around for writes
system.mem_ctrls.rdPerTurnAround::gmean     16.759938                       # Reads before turning the bus around for writes
system.mem_ctrls.rdPerTurnAround::stdev   2114.896160                       # Reads before turning the bus around for writes
system.mem_ctrls.rdPerTurnAround::0-8191        12126     99.99%     99.99% # Reads before turning the bus around for writes
system.mem_ctrls.rdPerTurnAround::229376-237567            1      0.01%    100.00% # Reads before turning the bus around for writes
system.mem_ctrls.rdPerTurnAround::total         12127                       # Reads before turning the bus around for writes
system.mem_ctrls.wrPerTurnAround::samples        12127                       # Writes before turning the bus around for reads
system.mem_ctrls.wrPerTurnAround::mean      16.113383                       # Writes before turning the bus around for reads
system.mem_ctrls.wrPerTurnAround::gmean     16.104496                       # Writes before turning the bus around for reads
system.mem_ctrls.wrPerTurnAround::stdev      0.576142                       # Writes before turning the bus around for reads
system.mem_ctrls.wrPerTurnAround::16            11551     95.25%     95.25% # Writes before turning the bus around for reads
system.mem_ctrls.wrPerTurnAround::17               19      0.16%     95.41% # Writes before turning the bus around for reads
system.mem_ctrls.wrPerTurnAround::18              464      3.83%     99.23% # Writes before turning the bus around for reads
system.mem_ctrls.wrPerTurnAround::19               37      0.31%     99.54% # Writes before turning the bus around for reads
system.mem_ctrls.wrPerTurnAround::20               17      0.14%     99.68% # Writes before turning the bus around for reads
system.mem_ctrls.wrPerTurnAround::21               19      0.16%     99.84% # Writes before turning the bus around for reads
system.mem_ctrls.wrPerTurnAround::22                6      0.05%     99.88% # Writes before turning the bus around for reads
system.mem_ctrls.wrPerTurnAround::23                4      0.03%     99.92% # Writes before turning the bus around for reads
system.mem_ctrls.wrPerTurnAround::24                2      0.02%     99.93% # Writes before turning the bus around for reads
system.mem_ctrls.wrPerTurnAround::25                6      0.05%     99.98% # Writes before turning the bus around for reads
system.mem_ctrls.wrPerTurnAround::26                2      0.02%    100.00% # Writes before turning the bus around for reads
system.mem_ctrls.wrPerTurnAround::total         12127                       # Writes before turning the bus around for reads
system.mem_ctrls.totQLat                  10690967874                       # Total ticks spent queuing
system.mem_ctrls.totMemAccLat             19368617874                       # Total ticks spent from burst creation until serviced by the DRAM
system.mem_ctrls.totBusLat                 2314040000                       # Total ticks spent in databus transfers
system.mem_ctrls.avgQLat                     23100.22                       # Average queueing delay per DRAM burst
system.mem_ctrls.avgBusLat                    5000.00                       # Average bus latency per DRAM burst
system.mem_ctrls.avgMemAccLat                41850.22                       # Average memory access latency per DRAM burst
system.mem_ctrls.avgRdBW                        31.74                       # Average DRAM read bandwidth in MiByte/s
system.mem_ctrls.avgWrBW                        13.40                       # Average achieved write bandwidth in MiByte/s
system.mem_ctrls.avgRdBWSys                     31.74                       # Average system read bandwidth in MiByte/s
system.mem_ctrls.avgWrBWSys                     13.40                       # Average system write bandwidth in MiByte/s
system.mem_ctrls.peakBW                      12800.00                       # Theoretical peak bandwidth in MiByte/s
system.mem_ctrls.busUtil                         0.35                       # Data bus utilization in percentage
system.mem_ctrls.busUtilRead                     0.25                       # Data bus utilization in percentage for reads
system.mem_ctrls.busUtilWrite                    0.10                       # Data bus utilization in percentage for writes
system.mem_ctrls.avgRdQLen                       1.02                       # Average read queue length when enqueuing
system.mem_ctrls.avgWrQLen                       7.44                       # Average write queue length when enqueuing
system.mem_ctrls.readRowHits                   318349                       # Number of row buffer hits during reads
system.mem_ctrls.writeRowHits                  159583                       # Number of row buffer hits during writes
system.mem_ctrls.readRowHitRate                 68.79                       # Row buffer hit rate for reads
system.mem_ctrls.writeRowHitRate                81.65                       # Row buffer hit rate for writes
system.mem_ctrls.avgGap                    1417870.35                       # Average gap between requests
system.mem_ctrls.pageHitRate                    72.61                       # Row buffer hit rate, read and write combined
system.mem_ctrls_0.actEnergy                686410200                       # Energy for activate commands per rank (pJ)
system.mem_ctrls_0.preEnergy                374529375                       # Energy for precharge commands per rank (pJ)
system.mem_ctrls_0.readEnergy              1798102800                       # Energy for read commands per rank (pJ)
system.mem_ctrls_0.writeEnergy              625812480                       # Energy for write commands per rank (pJ)
system.mem_ctrls_0.refreshEnergy          60959561520                       # Energy for refresh commands per rank (pJ)
system.mem_ctrls_0.actBackEnergy         185845325670                       # Energy for active background per rank (pJ)
system.mem_ctrls_0.preBackEnergy         396966597750                       # Energy for precharge background per rank (pJ)
system.mem_ctrls_0.totalEnergy           647256339795                       # Total energy per rank (pJ)
system.mem_ctrls_0.averagePower            693.502789                       # Core power per rank (mW)
system.mem_ctrls_0.memoryStateTime::IDLE 659376745503                       # Time in different power states
system.mem_ctrls_0.memoryStateTime::REF   31165420000                       # Time in different power states
system.mem_ctrls_0.memoryStateTime::PRE_PDN            0                       # Time in different power states
system.mem_ctrls_0.memoryStateTime::ACT  242773176997                       # Time in different power states
system.mem_ctrls_0.memoryStateTime::ACT_PDN            0                       # Time in different power states
system.mem_ctrls_1.actEnergy                676302480                       # Energy for activate commands per rank (pJ)
system.mem_ctrls_1.preEnergy                369014250                       # Energy for precharge commands per rank (pJ)
system.mem_ctrls_1.readEnergy              1811433000                       # Energy for read commands per rank (pJ)
system.mem_ctrls_1.writeEnergy              640217520                       # Energy for write commands per rank (pJ)
system.mem_ctrls_1.refreshEnergy          60959561520                       # Energy for refresh commands per rank (pJ)
system.mem_ctrls_1.actBackEnergy         185071361715                       # Energy for active background per rank (pJ)
system.mem_ctrls_1.preBackEnergy         397645513500                       # Energy for precharge background per rank (pJ)
system.mem_ctrls_1.totalEnergy           647173403985                       # Total energy per rank (pJ)
system.mem_ctrls_1.averagePower            693.413928                       # Core power per rank (mW)
system.mem_ctrls_1.memoryStateTime::IDLE 660504429752                       # Time in different power states
system.mem_ctrls_1.memoryStateTime::REF   31165420000                       # Time in different power states
system.mem_ctrls_1.memoryStateTime::PRE_PDN            0                       # Time in different power states
system.mem_ctrls_1.memoryStateTime::ACT  241644852748                       # Time in different power states
system.mem_ctrls_1.memoryStateTime::ACT_PDN            0                       # Time in different power states
system.cpu_voltage_domain.voltage                   1                       # Voltage in Volts
system.cpu_clk_domain.clock                       500                       # Clock period in ticks
system.cpu0.apic_clk_domain.clock                8000                       # Clock period in ticks
system.cpu0.workload.num_syscalls                 595                       # Number of system calls
system.cpu0.numCycles                      1866637778                       # number of cpu cycles simulated
system.cpu0.numWorkItemsStarted                     0                       # number of work items this cpu started
system.cpu0.numWorkItemsCompleted                   0                       # number of work items this cpu completed
system.cpu0.committedInsts                  524474569                       # Number of instructions committed
system.cpu0.committedOps                   1465378004                       # Number of ops (including micro ops) committed
system.cpu0.num_int_alu_accesses           1385150190                       # Number of integer alu accesses
system.cpu0.num_fp_alu_accesses              37947212                       # Number of float alu accesses
system.cpu0.num_func_calls                   49105368                       # number of times a function call or return occured
system.cpu0.num_conditional_control_insts    111600155                       # number of instructions that are conditional controls
system.cpu0.num_int_insts                  1385150190                       # number of integer instructions
system.cpu0.num_fp_insts                     37947212                       # number of float instructions
system.cpu0.num_int_register_reads         2918065567                       # number of times the integer registers were read
system.cpu0.num_int_register_writes        1376023669                       # number of times the integer registers were written
system.cpu0.num_fp_register_reads            60768189                       # number of times the floating registers were read
system.cpu0.num_fp_register_writes           30252472                       # number of times the floating registers were written
system.cpu0.num_cc_register_reads          1158470767                       # number of times the CC registers were read
system.cpu0.num_cc_register_writes          436842038                       # number of times the CC registers were written
system.cpu0.num_mem_refs                    227199094                       # number of memory refs
system.cpu0.num_load_insts                  140617763                       # Number of load instructions
system.cpu0.num_store_insts                  86581331                       # Number of store instructions
system.cpu0.num_idle_cycles                  0.002000                       # Number of idle cycles
system.cpu0.num_busy_cycles              1866637777.998000                       # Number of busy cycles
system.cpu0.not_idle_fraction                1.000000                       # Percentage of non-idle cycles
system.cpu0.idle_fraction                    0.000000                       # Percentage of idle cycles
system.cpu0.Branches                        185005037                       # Number of branches fetched
system.cpu0.op_class::No_OpClass             24674789      1.68%      1.68% # Class of executed instruction
system.cpu0.op_class::IntAlu               1060639168     72.38%     74.06% # Class of executed instruction
system.cpu0.op_class::IntMult                     901      0.00%     74.06% # Class of executed instruction
system.cpu0.op_class::IntDiv                122612675      8.37%     82.43% # Class of executed instruction
system.cpu0.op_class::FloatAdd               30251377      2.06%     84.50% # Class of executed instruction
system.cpu0.op_class::FloatCmp                      0      0.00%     84.50% # Class of executed instruction
system.cpu0.op_class::FloatCvt                      0      0.00%     84.50% # Class of executed instruction
system.cpu0.op_class::FloatMult                     0      0.00%     84.50% # Class of executed instruction
system.cpu0.op_class::FloatDiv                      0      0.00%     84.50% # Class of executed instruction
system.cpu0.op_class::FloatSqrt                     0      0.00%     84.50% # Class of executed instruction
system.cpu0.op_class::SimdAdd                       0      0.00%     84.50% # Class of executed instruction
system.cpu0.op_class::SimdAddAcc                    0      0.00%     84.50% # Class of executed instruction
system.cpu0.op_class::SimdAlu                       0      0.00%     84.50% # Class of executed instruction
system.cpu0.op_class::SimdCmp                       0      0.00%     84.50% # Class of executed instruction
system.cpu0.op_class::SimdCvt                       0      0.00%     84.50% # Class of executed instruction
system.cpu0.op_class::SimdMisc                      0      0.00%     84.50% # Class of executed instruction
system.cpu0.op_class::SimdMult                      0      0.00%     84.50% # Class of executed instruction
system.cpu0.op_class::SimdMultAcc                   0      0.00%     84.50% # Class of executed instruction
system.cpu0.op_class::SimdShift                     0      0.00%     84.50% # Class of executed instruction
system.cpu0.op_class::SimdShiftAcc                  0      0.00%     84.50% # Class of executed instruction
system.cpu0.op_class::SimdSqrt                      0      0.00%     84.50% # Class of executed instruction
system.cpu0.op_class::SimdFloatAdd                  0      0.00%     84.50% # Class of executed instruction
system.cpu0.op_class::SimdFloatAlu                  0      0.00%     84.50% # Class of executed instruction
system.cpu0.op_class::SimdFloatCmp                  0      0.00%     84.50% # Class of executed instruction
system.cpu0.op_class::SimdFloatCvt                  0      0.00%     84.50% # Class of executed instruction
system.cpu0.op_class::SimdFloatDiv                  0      0.00%     84.50% # Class of executed instruction
system.cpu0.op_class::SimdFloatMisc                 0      0.00%     84.50% # Class of executed instruction
system.cpu0.op_class::SimdFloatMult                 0      0.00%     84.50% # Class of executed instruction
system.cpu0.op_class::SimdFloatMultAcc              0      0.00%     84.50% # Class of executed instruction
system.cpu0.op_class::SimdFloatSqrt                 0      0.00%     84.50% # Class of executed instruction
system.cpu0.op_class::MemRead               140617763      9.60%     94.09% # Class of executed instruction
system.cpu0.op_class::MemWrite               86581331      5.91%    100.00% # Class of executed instruction
system.cpu0.op_class::IprAccess                     0      0.00%    100.00% # Class of executed instruction
system.cpu0.op_class::InstPrefetch                  0      0.00%    100.00% # Class of executed instruction
system.cpu0.op_class::total                1465378004                       # Class of executed instruction
system.cpu1.apic_clk_domain.clock                8000                       # Clock period in ticks
system.cpu1.numCycles                      1848506471                       # number of cpu cycles simulated
system.cpu1.numWorkItemsStarted                     0                       # number of work items this cpu started
system.cpu1.numWorkItemsCompleted                   0                       # number of work items this cpu completed
system.cpu1.committedInsts                   13480711                       # Number of instructions committed
system.cpu1.committedOps                     26641740                       # Number of ops (including micro ops) committed
system.cpu1.num_int_alu_accesses             20924611                       # Number of integer alu accesses
system.cpu1.num_fp_alu_accesses              13567390                       # Number of float alu accesses
system.cpu1.num_func_calls                      99033                       # number of times a function call or return occured
system.cpu1.num_conditional_control_insts      1475859                       # number of instructions that are conditional controls
system.cpu1.num_int_insts                    20924611                       # number of integer instructions
system.cpu1.num_fp_insts                     13567390                       # number of float instructions
system.cpu1.num_int_register_reads           39858191                       # number of times the integer registers were read
system.cpu1.num_int_register_writes          11540759                       # number of times the integer registers were written
system.cpu1.num_fp_register_reads            19074513                       # number of times the floating registers were read
system.cpu1.num_fp_register_writes           11298371                       # number of times the floating registers were written
system.cpu1.num_cc_register_reads             8904729                       # number of times the CC registers were read
system.cpu1.num_cc_register_writes            8879653                       # number of times the CC registers were written
system.cpu1.num_mem_refs                      8095365                       # number of memory refs
system.cpu1.num_load_insts                    5776573                       # Number of load instructions
system.cpu1.num_store_insts                   2318792                       # Number of store instructions
system.cpu1.num_idle_cycles              1786463524.998537                       # Number of idle cycles
system.cpu1.num_busy_cycles              62042946.001463                       # Number of busy cycles
system.cpu1.not_idle_fraction                0.033564                       # Percentage of non-idle cycles
system.cpu1.idle_fraction                    0.966436                       # Percentage of idle cycles
system.cpu1.Branches                          1629051                       # Number of branches fetched
system.cpu1.op_class::No_OpClass                    7      0.00%      0.00% # Class of executed instruction
system.cpu1.op_class::IntAlu                 12683978     47.61%     47.61% # Class of executed instruction
system.cpu1.op_class::IntMult                  145208      0.55%     48.15% # Class of executed instruction
system.cpu1.op_class::IntDiv                       49      0.00%     48.15% # Class of executed instruction
system.cpu1.op_class::FloatAdd                5717133     21.46%     69.61% # Class of executed instruction
system.cpu1.op_class::FloatCmp                      0      0.00%     69.61% # Class of executed instruction
system.cpu1.op_class::FloatCvt                      0      0.00%     69.61% # Class of executed instruction
system.cpu1.op_class::FloatMult                     0      0.00%     69.61% # Class of executed instruction
system.cpu1.op_class::FloatDiv                      0      0.00%     69.61% # Class of executed instruction
system.cpu1.op_class::FloatSqrt                     0      0.00%     69.61% # Class of executed instruction
system.cpu1.op_class::SimdAdd                       0      0.00%     69.61% # Class of executed instruction
system.cpu1.op_class::SimdAddAcc                    0      0.00%     69.61% # Class of executed instruction
system.cpu1.op_class::SimdAlu                       0      0.00%     69.61% # Class of executed instruction
system.cpu1.op_class::SimdCmp                       0      0.00%     69.61% # Class of executed instruction
system.cpu1.op_class::SimdCvt                       0      0.00%     69.61% # Class of executed instruction
system.cpu1.op_class::SimdMisc                      0      0.00%     69.61% # Class of executed instruction
system.cpu1.op_class::SimdMult                      0      0.00%     69.61% # Class of executed instruction
system.cpu1.op_class::SimdMultAcc                   0      0.00%     69.61% # Class of executed instruction
system.cpu1.op_class::SimdShift                     0      0.00%     69.61% # Class of executed instruction
system.cpu1.op_class::SimdShiftAcc                  0      0.00%     69.61% # Class of executed instruction
system.cpu1.op_class::SimdSqrt                      0      0.00%     69.61% # Class of executed instruction
system.cpu1.op_class::SimdFloatAdd                  0      0.00%     69.61% # Class of executed instruction
system.cpu1.op_class::SimdFloatAlu                  0      0.00%     69.61% # Class of executed instruction
system.cpu1.op_class::SimdFloatCmp                  0      0.00%     69.61% # Class of executed instruction
system.cpu1.op_class::SimdFloatCvt                  0      0.00%     69.61% # Class of executed instruction
system.cpu1.op_class::SimdFloatDiv                  0      0.00%     69.61% # Class of executed instruction
system.cpu1.op_class::SimdFloatMisc                 0      0.00%     69.61% # Class of executed instruction
system.cpu1.op_class::SimdFloatMult                 0      0.00%     69.61% # Class of executed instruction
system.cpu1.op_class::SimdFloatMultAcc              0      0.00%     69.61% # Class of executed instruction
system.cpu1.op_class::SimdFloatSqrt                 0      0.00%     69.61% # Class of executed instruction
system.cpu1.op_class::MemRead                 5776573     21.68%     91.30% # Class of executed instruction
system.cpu1.op_class::MemWrite                2318792      8.70%    100.00% # Class of executed instruction
system.cpu1.op_class::IprAccess                     0      0.00%    100.00% # Class of executed instruction
system.cpu1.op_class::InstPrefetch                  0      0.00%    100.00% # Class of executed instruction
system.cpu1.op_class::total                  26641740                       # Class of executed instruction
system.cpu2.apic_clk_domain.clock                8000                       # Clock period in ticks
system.cpu2.numCycles                      1848393474                       # number of cpu cycles simulated
system.cpu2.numWorkItemsStarted                     0                       # number of work items this cpu started
system.cpu2.numWorkItemsCompleted                   0                       # number of work items this cpu completed
system.cpu2.committedInsts                   10277724                       # Number of instructions committed
system.cpu2.committedOps                     20348453                       # Number of ops (including micro ops) committed
system.cpu2.num_int_alu_accesses             15909237                       # Number of integer alu accesses
system.cpu2.num_fp_alu_accesses              10323215                       # Number of float alu accesses
system.cpu2.num_func_calls                      74293                       # number of times a function call or return occured
system.cpu2.num_conditional_control_insts      1134730                       # number of instructions that are conditional controls
system.cpu2.num_int_insts                    15909237                       # number of integer instructions
system.cpu2.num_fp_insts                     10323215                       # number of float instructions
system.cpu2.num_int_register_reads           30123742                       # number of times the integer registers were read
system.cpu2.num_int_register_writes           8846780                       # number of times the integer registers were written
system.cpu2.num_fp_register_reads            14638878                       # number of times the floating registers were read
system.cpu2.num_fp_register_writes            8730201                       # number of times the floating registers were written
system.cpu2.num_cc_register_reads             6845562                       # number of times the CC registers were read
system.cpu2.num_cc_register_writes            6826727                       # number of times the CC registers were written
system.cpu2.num_mem_refs                      6064064                       # number of memory refs
system.cpu2.num_load_insts                    4433688                       # Number of load instructions
system.cpu2.num_store_insts                   1630376                       # Number of store instructions
system.cpu2.num_idle_cycles              1799901552.590024                       # Number of idle cycles
system.cpu2.num_busy_cycles              48491921.409976                       # Number of busy cycles
system.cpu2.not_idle_fraction                0.026235                       # Percentage of non-idle cycles
system.cpu2.idle_fraction                    0.973765                       # Percentage of idle cycles
system.cpu2.Branches                          1249267                       # Number of branches fetched
system.cpu2.op_class::No_OpClass                    6      0.00%      0.00% # Class of executed instruction
system.cpu2.op_class::IntAlu                  9736975     47.85%     47.85% # Class of executed instruction
system.cpu2.op_class::IntMult                  108148      0.53%     48.38% # Class of executed instruction
system.cpu2.op_class::IntDiv                       42      0.00%     48.38% # Class of executed instruction
system.cpu2.op_class::FloatAdd                4439218     21.82%     70.20% # Class of executed instruction
system.cpu2.op_class::FloatCmp                      0      0.00%     70.20% # Class of executed instruction
system.cpu2.op_class::FloatCvt                      0      0.00%     70.20% # Class of executed instruction
system.cpu2.op_class::FloatMult                     0      0.00%     70.20% # Class of executed instruction
system.cpu2.op_class::FloatDiv                      0      0.00%     70.20% # Class of executed instruction
system.cpu2.op_class::FloatSqrt                     0      0.00%     70.20% # Class of executed instruction
system.cpu2.op_class::SimdAdd                       0      0.00%     70.20% # Class of executed instruction
system.cpu2.op_class::SimdAddAcc                    0      0.00%     70.20% # Class of executed instruction
system.cpu2.op_class::SimdAlu                       0      0.00%     70.20% # Class of executed instruction
system.cpu2.op_class::SimdCmp                       0      0.00%     70.20% # Class of executed instruction
system.cpu2.op_class::SimdCvt                       0      0.00%     70.20% # Class of executed instruction
system.cpu2.op_class::SimdMisc                      0      0.00%     70.20% # Class of executed instruction
system.cpu2.op_class::SimdMult                      0      0.00%     70.20% # Class of executed instruction
system.cpu2.op_class::SimdMultAcc                   0      0.00%     70.20% # Class of executed instruction
system.cpu2.op_class::SimdShift                     0      0.00%     70.20% # Class of executed instruction
system.cpu2.op_class::SimdShiftAcc                  0      0.00%     70.20% # Class of executed instruction
system.cpu2.op_class::SimdSqrt                      0      0.00%     70.20% # Class of executed instruction
system.cpu2.op_class::SimdFloatAdd                  0      0.00%     70.20% # Class of executed instruction
system.cpu2.op_class::SimdFloatAlu                  0      0.00%     70.20% # Class of executed instruction
system.cpu2.op_class::SimdFloatCmp                  0      0.00%     70.20% # Class of executed instruction
system.cpu2.op_class::SimdFloatCvt                  0      0.00%     70.20% # Class of executed instruction
system.cpu2.op_class::SimdFloatDiv                  0      0.00%     70.20% # Class of executed instruction
system.cpu2.op_class::SimdFloatMisc                 0      0.00%     70.20% # Class of executed instruction
system.cpu2.op_class::SimdFloatMult                 0      0.00%     70.20% # Class of executed instruction
system.cpu2.op_class::SimdFloatMultAcc              0      0.00%     70.20% # Class of executed instruction
system.cpu2.op_class::SimdFloatSqrt                 0      0.00%     70.20% # Class of executed instruction
system.cpu2.op_class::MemRead                 4433688     21.79%     91.99% # Class of executed instruction
system.cpu2.op_class::MemWrite                1630376      8.01%    100.00% # Class of executed instruction
system.cpu2.op_class::IprAccess                     0      0.00%    100.00% # Class of executed instruction
system.cpu2.op_class::InstPrefetch                  0      0.00%    100.00% # Class of executed instruction
system.cpu2.op_class::total                  20348453                       # Class of executed instruction
system.cpu3.apic_clk_domain.clock                8000                       # Clock period in ticks
system.cpu3.numCycles                      1847318222                       # number of cpu cycles simulated
system.cpu3.numWorkItemsStarted                     0                       # number of work items this cpu started
system.cpu3.numWorkItemsCompleted                   0                       # number of work items this cpu completed
system.cpu3.committedInsts                   10277724                       # Number of instructions committed
system.cpu3.committedOps                     20348453                       # Number of ops (including micro ops) committed
system.cpu3.num_int_alu_accesses             15909237                       # Number of integer alu accesses
system.cpu3.num_fp_alu_accesses              10323215                       # Number of float alu accesses
system.cpu3.num_func_calls                      74293                       # number of times a function call or return occured
system.cpu3.num_conditional_control_insts      1134730                       # number of instructions that are conditional controls
system.cpu3.num_int_insts                    15909237                       # number of integer instructions
system.cpu3.num_fp_insts                     10323215                       # number of float instructions
system.cpu3.num_int_register_reads           30123742                       # number of times the integer registers were read
system.cpu3.num_int_register_writes           8846780                       # number of times the integer registers were written
system.cpu3.num_fp_register_reads            14638878                       # number of times the floating registers were read
system.cpu3.num_fp_register_writes            8730201                       # number of times the floating registers were written
system.cpu3.num_cc_register_reads             6845562                       # number of times the CC registers were read
system.cpu3.num_cc_register_writes            6826727                       # number of times the CC registers were written
system.cpu3.num_mem_refs                      6064064                       # number of memory refs
system.cpu3.num_load_insts                    4433688                       # Number of load instructions
system.cpu3.num_store_insts                   1630376                       # Number of store instructions
system.cpu3.num_idle_cycles              1799915139.190421                       # Number of idle cycles
system.cpu3.num_busy_cycles              47403082.809579                       # Number of busy cycles
system.cpu3.not_idle_fraction                0.025660                       # Percentage of non-idle cycles
system.cpu3.idle_fraction                    0.974340                       # Percentage of idle cycles
system.cpu3.Branches                          1249267                       # Number of branches fetched
system.cpu3.op_class::No_OpClass                    6      0.00%      0.00% # Class of executed instruction
system.cpu3.op_class::IntAlu                  9736975     47.85%     47.85% # Class of executed instruction
system.cpu3.op_class::IntMult                  108148      0.53%     48.38% # Class of executed instruction
system.cpu3.op_class::IntDiv                       42      0.00%     48.38% # Class of executed instruction
system.cpu3.op_class::FloatAdd                4439218     21.82%     70.20% # Class of executed instruction
system.cpu3.op_class::FloatCmp                      0      0.00%     70.20% # Class of executed instruction
system.cpu3.op_class::FloatCvt                      0      0.00%     70.20% # Class of executed instruction
system.cpu3.op_class::FloatMult                     0      0.00%     70.20% # Class of executed instruction
system.cpu3.op_class::FloatDiv                      0      0.00%     70.20% # Class of executed instruction
system.cpu3.op_class::FloatSqrt                     0      0.00%     70.20% # Class of executed instruction
system.cpu3.op_class::SimdAdd                       0      0.00%     70.20% # Class of executed instruction
system.cpu3.op_class::SimdAddAcc                    0      0.00%     70.20% # Class of executed instruction
system.cpu3.op_class::SimdAlu                       0      0.00%     70.20% # Class of executed instruction
system.cpu3.op_class::SimdCmp                       0      0.00%     70.20% # Class of executed instruction
system.cpu3.op_class::SimdCvt                       0      0.00%     70.20% # Class of executed instruction
system.cpu3.op_class::SimdMisc                      0      0.00%     70.20% # Class of executed instruction
system.cpu3.op_class::SimdMult                      0      0.00%     70.20% # Class of executed instruction
system.cpu3.op_class::SimdMultAcc                   0      0.00%     70.20% # Class of executed instruction
system.cpu3.op_class::SimdShift                     0      0.00%     70.20% # Class of executed instruction
system.cpu3.op_class::SimdShiftAcc                  0      0.00%     70.20% # Class of executed instruction
system.cpu3.op_class::SimdSqrt                      0      0.00%     70.20% # Class of executed instruction
system.cpu3.op_class::SimdFloatAdd                  0      0.00%     70.20% # Class of executed instruction
system.cpu3.op_class::SimdFloatAlu                  0      0.00%     70.20% # Class of executed instruction
system.cpu3.op_class::SimdFloatCmp                  0      0.00%     70.20% # Class of executed instruction
system.cpu3.op_class::SimdFloatCvt                  0      0.00%     70.20% # Class of executed instruction
system.cpu3.op_class::SimdFloatDiv                  0      0.00%     70.20% # Class of executed instruction
system.cpu3.op_class::SimdFloatMisc                 0      0.00%     70.20% # Class of executed instruction
system.cpu3.op_class::SimdFloatMult                 0      0.00%     70.20% # Class of executed instruction
system.cpu3.op_class::SimdFloatMultAcc              0      0.00%     70.20% # Class of executed instruction
system.cpu3.op_class::SimdFloatSqrt                 0      0.00%     70.20% # Class of executed instruction
system.cpu3.op_class::MemRead                 4433688     21.79%     91.99% # Class of executed instruction
system.cpu3.op_class::MemWrite                1630376      8.01%    100.00% # Class of executed instruction
system.cpu3.op_class::IprAccess                     0      0.00%    100.00% # Class of executed instruction
system.cpu3.op_class::InstPrefetch                  0      0.00%    100.00% # Class of executed instruction
system.cpu3.op_class::total                  20348453                       # Class of executed instruction
system.cpu4.apic_clk_domain.clock                8000                       # Clock period in ticks
system.cpu4.numCycles                      1848379295                       # number of cpu cycles simulated
system.cpu4.numWorkItemsStarted                     0                       # number of work items this cpu started
system.cpu4.numWorkItemsCompleted                   0                       # number of work items this cpu completed
system.cpu4.committedInsts                   10277724                       # Number of instructions committed
system.cpu4.committedOps                     20348453                       # Number of ops (including micro ops) committed
system.cpu4.num_int_alu_accesses             15909237                       # Number of integer alu accesses
system.cpu4.num_fp_alu_accesses              10323215                       # Number of float alu accesses
system.cpu4.num_func_calls                      74293                       # number of times a function call or return occured
system.cpu4.num_conditional_control_insts      1134730                       # number of instructions that are conditional controls
system.cpu4.num_int_insts                    15909237                       # number of integer instructions
system.cpu4.num_fp_insts                     10323215                       # number of float instructions
system.cpu4.num_int_register_reads           30123742                       # number of times the integer registers were read
system.cpu4.num_int_register_writes           8846780                       # number of times the integer registers were written
system.cpu4.num_fp_register_reads            14638878                       # number of times the floating registers were read
system.cpu4.num_fp_register_writes            8730201                       # number of times the floating registers were written
system.cpu4.num_cc_register_reads             6845562                       # number of times the CC registers were read
system.cpu4.num_cc_register_writes            6826727                       # number of times the CC registers were written
system.cpu4.num_mem_refs                      6064064                       # number of memory refs
system.cpu4.num_load_insts                    4433688                       # Number of load instructions
system.cpu4.num_store_insts                   1630376                       # Number of store instructions
system.cpu4.num_idle_cycles              1799792508.334196                       # Number of idle cycles
system.cpu4.num_busy_cycles              48586786.665804                       # Number of busy cycles
system.cpu4.not_idle_fraction                0.026286                       # Percentage of non-idle cycles
system.cpu4.idle_fraction                    0.973714                       # Percentage of idle cycles
system.cpu4.Branches                          1249267                       # Number of branches fetched
system.cpu4.op_class::No_OpClass                    6      0.00%      0.00% # Class of executed instruction
system.cpu4.op_class::IntAlu                  9736975     47.85%     47.85% # Class of executed instruction
system.cpu4.op_class::IntMult                  108148      0.53%     48.38% # Class of executed instruction
system.cpu4.op_class::IntDiv                       42      0.00%     48.38% # Class of executed instruction
system.cpu4.op_class::FloatAdd                4439218     21.82%     70.20% # Class of executed instruction
system.cpu4.op_class::FloatCmp                      0      0.00%     70.20% # Class of executed instruction
system.cpu4.op_class::FloatCvt                      0      0.00%     70.20% # Class of executed instruction
system.cpu4.op_class::FloatMult                     0      0.00%     70.20% # Class of executed instruction
system.cpu4.op_class::FloatDiv                      0      0.00%     70.20% # Class of executed instruction
system.cpu4.op_class::FloatSqrt                     0      0.00%     70.20% # Class of executed instruction
system.cpu4.op_class::SimdAdd                       0      0.00%     70.20% # Class of executed instruction
system.cpu4.op_class::SimdAddAcc                    0      0.00%     70.20% # Class of executed instruction
system.cpu4.op_class::SimdAlu                       0      0.00%     70.20% # Class of executed instruction
system.cpu4.op_class::SimdCmp                       0      0.00%     70.20% # Class of executed instruction
system.cpu4.op_class::SimdCvt                       0      0.00%     70.20% # Class of executed instruction
system.cpu4.op_class::SimdMisc                      0      0.00%     70.20% # Class of executed instruction
system.cpu4.op_class::SimdMult                      0      0.00%     70.20% # Class of executed instruction
system.cpu4.op_class::SimdMultAcc                   0      0.00%     70.20% # Class of executed instruction
system.cpu4.op_class::SimdShift                     0      0.00%     70.20% # Class of executed instruction
system.cpu4.op_class::SimdShiftAcc                  0      0.00%     70.20% # Class of executed instruction
system.cpu4.op_class::SimdSqrt                      0      0.00%     70.20% # Class of executed instruction
system.cpu4.op_class::SimdFloatAdd                  0      0.00%     70.20% # Class of executed instruction
system.cpu4.op_class::SimdFloatAlu                  0      0.00%     70.20% # Class of executed instruction
system.cpu4.op_class::SimdFloatCmp                  0      0.00%     70.20% # Class of executed instruction
system.cpu4.op_class::SimdFloatCvt                  0      0.00%     70.20% # Class of executed instruction
system.cpu4.op_class::SimdFloatDiv                  0      0.00%     70.20% # Class of executed instruction
system.cpu4.op_class::SimdFloatMisc                 0      0.00%     70.20% # Class of executed instruction
system.cpu4.op_class::SimdFloatMult                 0      0.00%     70.20% # Class of executed instruction
system.cpu4.op_class::SimdFloatMultAcc              0      0.00%     70.20% # Class of executed instruction
system.cpu4.op_class::SimdFloatSqrt                 0      0.00%     70.20% # Class of executed instruction
system.cpu4.op_class::MemRead                 4433688     21.79%     91.99% # Class of executed instruction
system.cpu4.op_class::MemWrite                1630376      8.01%    100.00% # Class of executed instruction
system.cpu4.op_class::IprAccess                     0      0.00%    100.00% # Class of executed instruction
system.cpu4.op_class::InstPrefetch                  0      0.00%    100.00% # Class of executed instruction
system.cpu4.op_class::total                  20348453                       # Class of executed instruction
system.cpu5.apic_clk_domain.clock                8000                       # Clock period in ticks
system.cpu5.numCycles                      1847829594                       # number of cpu cycles simulated
system.cpu5.numWorkItemsStarted                     0                       # number of work items this cpu started
system.cpu5.numWorkItemsCompleted                   0                       # number of work items this cpu completed
system.cpu5.committedInsts                   10277724                       # Number of instructions committed
system.cpu5.committedOps                     20348453                       # Number of ops (including micro ops) committed
system.cpu5.num_int_alu_accesses             15909237                       # Number of integer alu accesses
system.cpu5.num_fp_alu_accesses              10323215                       # Number of float alu accesses
system.cpu5.num_func_calls                      74293                       # number of times a function call or return occured
system.cpu5.num_conditional_control_insts      1134730                       # number of instructions that are conditional controls
system.cpu5.num_int_insts                    15909237                       # number of integer instructions
system.cpu5.num_fp_insts                     10323215                       # number of float instructions
system.cpu5.num_int_register_reads           30123742                       # number of times the integer registers were read
system.cpu5.num_int_register_writes           8846780                       # number of times the integer registers were written
system.cpu5.num_fp_register_reads            14638878                       # number of times the floating registers were read
system.cpu5.num_fp_register_writes            8730201                       # number of times the floating registers were written
system.cpu5.num_cc_register_reads             6845562                       # number of times the CC registers were read
system.cpu5.num_cc_register_writes            6826727                       # number of times the CC registers were written
system.cpu5.num_mem_refs                      6064064                       # number of memory refs
system.cpu5.num_load_insts                    4433688                       # Number of load instructions
system.cpu5.num_store_insts                   1630376                       # Number of store instructions
system.cpu5.num_idle_cycles              1799884658.832376                       # Number of idle cycles
system.cpu5.num_busy_cycles              47944935.167625                       # Number of busy cycles
system.cpu5.not_idle_fraction                0.025947                       # Percentage of non-idle cycles
system.cpu5.idle_fraction                    0.974053                       # Percentage of idle cycles
system.cpu5.Branches                          1249267                       # Number of branches fetched
system.cpu5.op_class::No_OpClass                    6      0.00%      0.00% # Class of executed instruction
system.cpu5.op_class::IntAlu                  9736975     47.85%     47.85% # Class of executed instruction
system.cpu5.op_class::IntMult                  108148      0.53%     48.38% # Class of executed instruction
system.cpu5.op_class::IntDiv                       42      0.00%     48.38% # Class of executed instruction
system.cpu5.op_class::FloatAdd                4439218     21.82%     70.20% # Class of executed instruction
system.cpu5.op_class::FloatCmp                      0      0.00%     70.20% # Class of executed instruction
system.cpu5.op_class::FloatCvt                      0      0.00%     70.20% # Class of executed instruction
system.cpu5.op_class::FloatMult                     0      0.00%     70.20% # Class of executed instruction
system.cpu5.op_class::FloatDiv                      0      0.00%     70.20% # Class of executed instruction
system.cpu5.op_class::FloatSqrt                     0      0.00%     70.20% # Class of executed instruction
system.cpu5.op_class::SimdAdd                       0      0.00%     70.20% # Class of executed instruction
system.cpu5.op_class::SimdAddAcc                    0      0.00%     70.20% # Class of executed instruction
system.cpu5.op_class::SimdAlu                       0      0.00%     70.20% # Class of executed instruction
system.cpu5.op_class::SimdCmp                       0      0.00%     70.20% # Class of executed instruction
system.cpu5.op_class::SimdCvt                       0      0.00%     70.20% # Class of executed instruction
system.cpu5.op_class::SimdMisc                      0      0.00%     70.20% # Class of executed instruction
system.cpu5.op_class::SimdMult                      0      0.00%     70.20% # Class of executed instruction
system.cpu5.op_class::SimdMultAcc                   0      0.00%     70.20% # Class of executed instruction
system.cpu5.op_class::SimdShift                     0      0.00%     70.20% # Class of executed instruction
system.cpu5.op_class::SimdShiftAcc                  0      0.00%     70.20% # Class of executed instruction
system.cpu5.op_class::SimdSqrt                      0      0.00%     70.20% # Class of executed instruction
system.cpu5.op_class::SimdFloatAdd                  0      0.00%     70.20% # Class of executed instruction
system.cpu5.op_class::SimdFloatAlu                  0      0.00%     70.20% # Class of executed instruction
system.cpu5.op_class::SimdFloatCmp                  0      0.00%     70.20% # Class of executed instruction
system.cpu5.op_class::SimdFloatCvt                  0      0.00%     70.20% # Class of executed instruction
system.cpu5.op_class::SimdFloatDiv                  0      0.00%     70.20% # Class of executed instruction
system.cpu5.op_class::SimdFloatMisc                 0      0.00%     70.20% # Class of executed instruction
system.cpu5.op_class::SimdFloatMult                 0      0.00%     70.20% # Class of executed instruction
system.cpu5.op_class::SimdFloatMultAcc              0      0.00%     70.20% # Class of executed instruction
system.cpu5.op_class::SimdFloatSqrt                 0      0.00%     70.20% # Class of executed instruction
system.cpu5.op_class::MemRead                 4433688     21.79%     91.99% # Class of executed instruction
system.cpu5.op_class::MemWrite                1630376      8.01%    100.00% # Class of executed instruction
system.cpu5.op_class::IprAccess                     0      0.00%    100.00% # Class of executed instruction
system.cpu5.op_class::InstPrefetch                  0      0.00%    100.00% # Class of executed instruction
system.cpu5.op_class::total                  20348453                       # Class of executed instruction
system.cpu6.apic_clk_domain.clock                8000                       # Clock period in ticks
system.cpu6.numCycles                      1848104750                       # number of cpu cycles simulated
system.cpu6.numWorkItemsStarted                     0                       # number of work items this cpu started
system.cpu6.numWorkItemsCompleted                   0                       # number of work items this cpu completed
system.cpu6.committedInsts                   10277724                       # Number of instructions committed
system.cpu6.committedOps                     20348453                       # Number of ops (including micro ops) committed
system.cpu6.num_int_alu_accesses             15909237                       # Number of integer alu accesses
system.cpu6.num_fp_alu_accesses              10323215                       # Number of float alu accesses
system.cpu6.num_func_calls                      74293                       # number of times a function call or return occured
system.cpu6.num_conditional_control_insts      1134730                       # number of instructions that are conditional controls
system.cpu6.num_int_insts                    15909237                       # number of integer instructions
system.cpu6.num_fp_insts                     10323215                       # number of float instructions
system.cpu6.num_int_register_reads           30123742                       # number of times the integer registers were read
system.cpu6.num_int_register_writes           8846780                       # number of times the integer registers were written
system.cpu6.num_fp_register_reads            14638878                       # number of times the floating registers were read
system.cpu6.num_fp_register_writes            8730201                       # number of times the floating registers were written
system.cpu6.num_cc_register_reads             6845562                       # number of times the CC registers were read
system.cpu6.num_cc_register_writes            6826727                       # number of times the CC registers were written
system.cpu6.num_mem_refs                      6064064                       # number of memory refs
system.cpu6.num_load_insts                    4433688                       # Number of load instructions
system.cpu6.num_store_insts                   1630376                       # Number of store instructions
system.cpu6.num_idle_cycles              1799821609.435746                       # Number of idle cycles
system.cpu6.num_busy_cycles              48283140.564254                       # Number of busy cycles
system.cpu6.not_idle_fraction                0.026126                       # Percentage of non-idle cycles
system.cpu6.idle_fraction                    0.973874                       # Percentage of idle cycles
system.cpu6.Branches                          1249267                       # Number of branches fetched
system.cpu6.op_class::No_OpClass                    6      0.00%      0.00% # Class of executed instruction
system.cpu6.op_class::IntAlu                  9736975     47.85%     47.85% # Class of executed instruction
system.cpu6.op_class::IntMult                  108148      0.53%     48.38% # Class of executed instruction
system.cpu6.op_class::IntDiv                       42      0.00%     48.38% # Class of executed instruction
system.cpu6.op_class::FloatAdd                4439218     21.82%     70.20% # Class of executed instruction
system.cpu6.op_class::FloatCmp                      0      0.00%     70.20% # Class of executed instruction
system.cpu6.op_class::FloatCvt                      0      0.00%     70.20% # Class of executed instruction
system.cpu6.op_class::FloatMult                     0      0.00%     70.20% # Class of executed instruction
system.cpu6.op_class::FloatDiv                      0      0.00%     70.20% # Class of executed instruction
system.cpu6.op_class::FloatSqrt                     0      0.00%     70.20% # Class of executed instruction
system.cpu6.op_class::SimdAdd                       0      0.00%     70.20% # Class of executed instruction
system.cpu6.op_class::SimdAddAcc                    0      0.00%     70.20% # Class of executed instruction
system.cpu6.op_class::SimdAlu                       0      0.00%     70.20% # Class of executed instruction
system.cpu6.op_class::SimdCmp                       0      0.00%     70.20% # Class of executed instruction
system.cpu6.op_class::SimdCvt                       0      0.00%     70.20% # Class of executed instruction
system.cpu6.op_class::SimdMisc                      0      0.00%     70.20% # Class of executed instruction
system.cpu6.op_class::SimdMult                      0      0.00%     70.20% # Class of executed instruction
system.cpu6.op_class::SimdMultAcc                   0      0.00%     70.20% # Class of executed instruction
system.cpu6.op_class::SimdShift                     0      0.00%     70.20% # Class of executed instruction
system.cpu6.op_class::SimdShiftAcc                  0      0.00%     70.20% # Class of executed instruction
system.cpu6.op_class::SimdSqrt                      0      0.00%     70.20% # Class of executed instruction
system.cpu6.op_class::SimdFloatAdd                  0      0.00%     70.20% # Class of executed instruction
system.cpu6.op_class::SimdFloatAlu                  0      0.00%     70.20% # Class of executed instruction
system.cpu6.op_class::SimdFloatCmp                  0      0.00%     70.20% # Class of executed instruction
system.cpu6.op_class::SimdFloatCvt                  0      0.00%     70.20% # Class of executed instruction
system.cpu6.op_class::SimdFloatDiv                  0      0.00%     70.20% # Class of executed instruction
system.cpu6.op_class::SimdFloatMisc                 0      0.00%     70.20% # Class of executed instruction
system.cpu6.op_class::SimdFloatMult                 0      0.00%     70.20% # Class of executed instruction
system.cpu6.op_class::SimdFloatMultAcc              0      0.00%     70.20% # Class of executed instruction
system.cpu6.op_class::SimdFloatSqrt                 0      0.00%     70.20% # Class of executed instruction
system.cpu6.op_class::MemRead                 4433688     21.79%     91.99% # Class of executed instruction
system.cpu6.op_class::MemWrite                1630376      8.01%    100.00% # Class of executed instruction
system.cpu6.op_class::IprAccess                     0      0.00%    100.00% # Class of executed instruction
system.cpu6.op_class::InstPrefetch                  0      0.00%    100.00% # Class of executed instruction
system.cpu6.op_class::total                  20348453                       # Class of executed instruction
system.cpu7.apic_clk_domain.clock                8000                       # Clock period in ticks
system.cpu7.numCycles                      1846510761                       # number of cpu cycles simulated
[...]
system.ruby.L1Cache_Controller.EE.L1_Replacement::total         5561                      
system.ruby.L1Cache_Controller.EE.Fwd_GETX |           2     50.00%     50.00% |           0      0.00%     50.00% |           2     50.00%    100.00% |           0      0.00%    100.00% |           0      0.00%    100.00% |           0      0.00%    100.00% |           0      0.00%    100.00% |           0      0.00%    100.00% |           0      0.00%    100.00%
system.ruby.L1Cache_Controller.EE.Fwd_GETX::total            4                      
system.ruby.L1Cache_Controller.EE.Fwd_GETS |          14      0.12%      0.12% |          35      0.30%      0.42% |           3      0.03%      0.44% |          39      0.33%      0.78% |           5      0.04%      0.82% |           1      0.01%      0.83% |           2      0.02%      0.85% |           8      0.07%      0.91% |       11603     99.09%    100.00%
system.ruby.L1Cache_Controller.EE.Fwd_GETS::total        11710                      
system.ruby.L1Cache_Controller.M.WriteBack |      527280     26.29%     26.29% |      220608     11.00%     37.29% |      157210      7.84%     45.13% |      164776      8.22%     53.35% |      162561      8.11%     61.46% |      164720      8.21%     69.67% |      173278      8.64%     78.31% |      170276      8.49%     86.80% |      264665     13.20%    100.00%
system.ruby.L1Cache_Controller.M.WriteBack::total      2005374                      
system.ruby.L1Cache_Controller.M.L0_Invalidate_Own |         296     41.75%     41.75% |          32      4.51%     46.26% |          18      2.54%     48.80% |          26      3.67%     52.47% |          15      2.12%     54.58% |          18      2.54%     57.12% |          19      2.68%     59.80% |          34      4.80%     64.60% |         251     35.40%    100.00%
system.ruby.L1Cache_Controller.M.L0_Invalidate_Own::total          709                      
system.ruby.L1Cache_Controller.M.L0_Invalidate_Else |         644      1.97%      1.97% |         595      1.82%      3.80% |       17937     54.96%     58.76% |         601      1.84%     60.60% |       10612     32.52%     93.12% |         586      1.80%     94.91% |         591      1.81%     96.72% |         601      1.84%     98.57% |         468      1.43%    100.00%
system.ruby.L1Cache_Controller.M.L0_Invalidate_Else::total        32635                      
system.ruby.L1Cache_Controller.MM.Load   |       20275      1.54%      1.54% |      191922     14.55%     16.09% |      145749     11.05%     27.14% |      144053     10.92%     38.06% |      143803     10.90%     48.97% |      143924     10.91%     59.88% |      144558     10.96%     70.84% |      144312     10.94%     81.79% |      240200     18.21%    100.00%
system.ruby.L1Cache_Controller.MM.Load::total      1318796                      
system.ruby.L1Cache_Controller.MM.Store  |       17463     99.09%     99.09% |          19      0.11%     99.20% |           7      0.04%     99.24% |          25      0.14%     99.38% |          13      0.07%     99.46% |          24      0.14%     99.59% |          18      0.10%     99.69% |          20      0.11%     99.81% |          34      0.19%    100.00%
system.ruby.L1Cache_Controller.MM.Store::total        17623                      
system.ruby.L1Cache_Controller.MM.Inv    |         499     99.01%     99.01% |           0      0.00%     99.01% |           2      0.40%     99.40% |           1      0.20%     99.60% |           0      0.00%     99.60% |           0      0.00%     99.60% |           0      0.00%     99.60% |           2      0.40%    100.00% |           0      0.00%    100.00%
system.ruby.L1Cache_Controller.MM.Inv::total          504                      
system.ruby.L1Cache_Controller.MM.L1_Replacement |      488025     42.14%     42.14% |       97365      8.41%     50.54% |       64004      5.53%     56.07% |       75101      6.48%     62.56% |       65229      5.63%     68.19% |       66259      5.72%     73.91% |       65908      5.69%     79.60% |       75233      6.50%     86.10% |      161043     13.90%    100.00%
system.ruby.L1Cache_Controller.MM.L1_Replacement::total      1158167                      
system.ruby.L1Cache_Controller.MM.Fwd_GETX |           8      8.00%      8.00% |           9      9.00%     17.00% |          20     20.00%     37.00% |          11     11.00%     48.00% |          10     10.00%     58.00% |          10     10.00%     68.00% |          17     17.00%     85.00% |          11     11.00%     96.00% |           4      4.00%    100.00%
system.ruby.L1Cache_Controller.MM.Fwd_GETX::total          100                      
system.ruby.L1Cache_Controller.MM.Fwd_GETS |        3760      1.88%      1.88% |        2359      1.18%      3.06% |       28285     14.14%     17.20% |       20561     10.28%     27.47% |       28596     14.29%     41.77% |       28460     14.23%     55.99% |       28480     14.24%     70.23% |       20507     10.25%     80.48% |       39054     19.52%    100.00%
system.ruby.L1Cache_Controller.MM.Fwd_GETS::total       200062                      
system.ruby.L1Cache_Controller.IS.Data_Exclusive |        5775      0.83%      0.83% |       72817     10.45%     11.27% |       66658      9.56%     20.84% |       76577     10.99%     31.82% |       68500      9.83%     41.65% |       76497     10.97%     52.62% |       68053      9.76%     62.38% |       71295     10.23%     72.61% |      190923     27.39%    100.00%
system.ruby.L1Cache_Controller.IS.Data_Exclusive::total       697095                      
system.ruby.L1Cache_Controller.IS.DataS_fromL1 |         138      0.07%      0.07% |       37485     17.70%     17.77% |       31797     15.01%     32.78% |       27267     12.88%     45.66% |       28559     13.49%     59.14% |       23805     11.24%     70.38% |       28499     13.46%     83.84% |       28132     13.28%     97.12% |        6094      2.88%    100.00%
system.ruby.L1Cache_Controller.IS.DataS_fromL1::total       211776                      
system.ruby.L1Cache_Controller.IS.Data_all_Acks |          10      0.00%      0.00% |       77211     15.88%     15.88% |       54330     11.17%     27.05% |       50787     10.44%     37.50% |       57567     11.84%     49.34% |       54319     11.17%     60.51% |       57563     11.84%     72.35% |       55203     11.35%     83.70% |       79270     16.30%    100.00%
system.ruby.L1Cache_Controller.IS.Data_all_Acks::total       486260                      
system.ruby.L1Cache_Controller.IM.Data   |           0      0.00%      0.00% |           3     15.00%     15.00% |           4     20.00%     35.00% |           2     10.00%     45.00% |           2     10.00%     55.00% |           2     10.00%     65.00% |           2     10.00%     75.00% |           3     15.00%     90.00% |           2     10.00%    100.00%
system.ruby.L1Cache_Controller.IM.Data::total           20                      
system.ruby.L1Cache_Controller.IM.Data_all_Acks |      490597     98.52%     98.52% |         818      0.16%     98.68% |         825      0.17%     98.85% |         826      0.17%     99.01% |         822      0.17%     99.18% |         825      0.17%     99.34% |         826      0.17%     99.51% |         827      0.17%     99.67% |        1619      0.33%    100.00%
system.ruby.L1Cache_Controller.IM.Data_all_Acks::total       497985                      
system.ruby.L1Cache_Controller.SM.Ack    |         129      0.04%      0.04% |       28478      8.45%      8.49% |       28592      8.48%     16.97% |       22475      6.67%     23.64% |       28559      8.47%     32.11% |       20556      6.10%     38.21% |       28499      8.45%     46.66% |       25758      7.64%     54.30% |      154032     45.70%    100.00%
system.ruby.L1Cache_Controller.SM.Ack::total       337078                      
system.ruby.L1Cache_Controller.SM.Ack_all |          89      0.04%      0.04% |       28481     13.90%     13.95% |       28594     13.96%     27.91% |       20503     10.01%     37.92% |       28560     13.94%     51.86% |       20558     10.04%     61.90% |       28500     13.91%     75.81% |       25759     12.58%     88.39% |       23785     11.61%    100.00%
system.ruby.L1Cache_Controller.SM.Ack_all::total       204829                      
system.ruby.L1Cache_Controller.M_I.Fwd_GETS |           0      0.00%      0.00% |           0      0.00%      0.00% |           0      0.00%      0.00% |           0      0.00%      0.00% |           0      0.00%      0.00% |           4    100.00%    100.00% |           0      0.00%    100.00% |           0      0.00%    100.00% |           0      0.00%    100.00%
system.ruby.L1Cache_Controller.M_I.Fwd_GETS::total            4                      
system.ruby.L1Cache_Controller.M_I.WB_Ack |      490965     42.19%     42.19% |       97667      8.39%     50.58% |       64310      5.53%     56.11% |       75373      6.48%     62.58% |       65545      5.63%     68.22% |       66555      5.72%     73.94% |       66206      5.69%     79.63% |       75489      6.49%     86.11% |      161614     13.89%    100.00%
system.ruby.L1Cache_Controller.M_I.WB_Ack::total      1163724                      
system.ruby.L1Cache_Controller.SINK_WB_ACK.WB_Ack |           0      0.00%      0.00% |           0      0.00%      0.00% |           0      0.00%      0.00% |           0      0.00%      0.00% |           0      0.00%      0.00% |           4    100.00%    100.00% |           0      0.00%    100.00% |           0      0.00%    100.00% |           0      0.00%    100.00%
system.ruby.L1Cache_Controller.SINK_WB_ACK.WB_Ack::total            4                      
system.ruby.L1Cache_Controller.S_IL0.L0_Invalidate_Own |          22      0.00%      0.00% |       86207     17.47%     17.48% |       57510     11.66%     29.14% |       57567     11.67%     40.80% |       57546     11.66%     52.47% |       57547     11.66%     64.13% |       57539     11.66%     75.79% |       57562     11.67%     87.46% |       61855     12.54%    100.00%
system.ruby.L1Cache_Controller.S_IL0.L0_Invalidate_Own::total       493355                      
system.ruby.L1Cache_Controller.S_IL0.L0_Invalidate_Else |          50     53.76%     53.76% |           5      5.38%     59.14% |           8      8.60%     67.74% |           5      5.38%     73.12% |           5      5.38%     78.49% |           4      4.30%     82.80% |           5      5.38%     88.17% |           5      5.38%     93.55% |           6      6.45%    100.00%
system.ruby.L1Cache_Controller.S_IL0.L0_Invalidate_Else::total           93                      
system.ruby.L1Cache_Controller.S_IL0.L0_Ack |          72      0.01%      0.01% |       86212     17.47%     17.49% |       57518     11.66%     29.14% |       57572     11.67%     40.81% |       57551     11.66%     52.47% |       57551     11.66%     64.14% |       57544     11.66%     75.80% |       57567     11.67%     87.46% |       61861     12.54%    100.00%
system.ruby.L1Cache_Controller.S_IL0.L0_Ack::total       493448                      
system.ruby.L1Cache_Controller.E_IL0.L0_DataAck |         297      9.89%      9.89% |         326     10.86%     20.75% |         167      5.56%     26.32% |         176      5.86%     32.18% |         184      6.13%     38.31% |        1213     40.41%     78.71% |         173      5.76%     84.48% |         169      5.63%     90.11% |         297      9.89%    100.00%
system.ruby.L1Cache_Controller.E_IL0.L0_DataAck::total         3002                      
system.ruby.L1Cache_Controller.E_IL0.L0_Invalidate_Own |        3219     43.68%     43.68% |         624      8.47%     52.15% |         470      6.38%     58.53% |         444      6.03%     64.55% |         489      6.64%     71.19% |         479      6.50%     77.69% |         468      6.35%     84.04% |         420      5.70%     89.74% |         756     10.26%    100.00%
system.ruby.L1Cache_Controller.E_IL0.L0_Invalidate_Own::total         7369                      
system.ruby.L1Cache_Controller.E_IL0.L0_Invalidate_Else |         321      2.43%      2.43% |          40      0.30%      2.74% |           8      0.06%      2.80% |          43      0.33%      3.12% |          16      0.12%      3.24% |        1035      7.84%     11.09% |           5      0.04%     11.12% |          13      0.10%     11.22% |       11715     88.78%    100.00%
system.ruby.L1Cache_Controller.E_IL0.L0_Invalidate_Else::total        13196                      
system.ruby.L1Cache_Controller.E_IL0.L0_Ack |        3243     18.46%     18.46% |         338      1.92%     20.39% |         311      1.77%     22.16% |         311      1.77%     23.93% |         321      1.83%     25.76% |         301      1.71%     27.47% |         300      1.71%     29.18% |         264      1.50%     30.68% |       12174     69.32%    100.00%
system.ruby.L1Cache_Controller.E_IL0.L0_Ack::total        17563                      
system.ruby.L1Cache_Controller.M_IL0.L0_DataAck |         802      2.44%      2.44% |         621      1.89%      4.32% |       17953     54.52%     58.84% |         613      1.86%     60.70% |       10625     32.26%     92.96% |         599      1.82%     94.78% |         602      1.83%     96.61% |         620      1.88%     98.49% |         497      1.51%    100.00%
system.ruby.L1Cache_Controller.M_IL0.L0_DataAck::total        32932                      
system.ruby.L1Cache_Controller.M_IL0.L0_Invalidate_Own |         296     41.75%     41.75% |          32      4.51%     46.26% |          18      2.54%     48.80% |          26      3.67%     52.47% |          15      2.12%     54.58% |          18      2.54%     57.12% |          19      2.68%     59.80% |          34      4.80%     64.60% |         251     35.40%    100.00%
system.ruby.L1Cache_Controller.M_IL0.L0_Invalidate_Own::total          709                      
system.ruby.L1Cache_Controller.M_IL0.L0_Invalidate_Else |         644      1.97%      1.97% |         595      1.82%      3.80% |       17937     54.96%     58.76% |         601      1.84%     60.60% |       10612     32.52%     93.12% |         586      1.80%     94.91% |         591      1.81%     96.72% |         601      1.84%     98.57% |         468      1.43%    100.00%
system.ruby.L1Cache_Controller.M_IL0.L0_Invalidate_Else::total        32635                      
system.ruby.L1Cache_Controller.M_IL0.L0_Ack |         138     33.50%     33.50% |           6      1.46%     34.95% |           2      0.49%     35.44% |          14      3.40%     38.83% |           2      0.49%     39.32% |           5      1.21%     40.53% |           8      1.94%     42.48% |          15      3.64%     46.12% |         222     53.88%    100.00%
system.ruby.L1Cache_Controller.M_IL0.L0_Ack::total          412                      
system.ruby.L2Cache_Controller.L1_GETS        1428785      0.00%      0.00%
system.ruby.L2Cache_Controller.L1_GETX         498005      0.00%      0.00%
system.ruby.L2Cache_Controller.L1_UPGRADE       204809      0.00%      0.00%
system.ruby.L2Cache_Controller.L1_PUTX        1163732      0.00%      0.00%
system.ruby.L2Cache_Controller.L2_Replacement       195098      0.00%      0.00%
system.ruby.L2Cache_Controller.L2_Replacement_clean         5573      0.00%      0.00%
system.ruby.L2Cache_Controller.Mem_Data        462815      0.00%      0.00%
system.ruby.L2Cache_Controller.Mem_Ack         200671      0.00%      0.00%
system.ruby.L2Cache_Controller.WB_Data         198874      0.00%      0.00%
system.ruby.L2Cache_Controller.WB_Data_clean        13406      0.00%      0.00%
system.ruby.L2Cache_Controller.Ack              50158      0.00%      0.00%
system.ruby.L2Cache_Controller.Ack_all           7211      0.00%      0.00%
system.ruby.L2Cache_Controller.Unblock         211776      0.00%      0.00%
system.ruby.L2Cache_Controller.Exclusive_Unblock      1399909      0.00%      0.00%
system.ruby.L2Cache_Controller.NP.L1_GETS       166449      0.00%      0.00%
system.ruby.L2Cache_Controller.NP.L1_GETX       296366      0.00%      0.00%
system.ruby.L2Cache_Controller.SS.L1_GETS       486216      0.00%      0.00%
system.ruby.L2Cache_Controller.SS.L1_GETX           20      0.00%      0.00%
system.ruby.L2Cache_Controller.SS.L1_UPGRADE       204809      0.00%      0.00%
system.ruby.L2Cache_Controller.SS.L1_PUTX            4      0.00%      0.00%
system.ruby.L2Cache_Controller.SS.L2_Replacement         6915      0.00%      0.00%
system.ruby.L2Cache_Controller.SS.L2_Replacement_clean           11      0.00%      0.00%
system.ruby.L2Cache_Controller.M.L1_GETS       530662      0.00%      0.00%
system.ruby.L2Cache_Controller.M.L1_GETX       201515      0.00%      0.00%
system.ruby.L2Cache_Controller.M.L2_Replacement       187978      0.00%      0.00%
system.ruby.L2Cache_Controller.M.L2_Replacement_clean         4978      0.00%      0.00%
system.ruby.L2Cache_Controller.MT.L1_GETS       211776      0.00%      0.00%
system.ruby.L2Cache_Controller.MT.L1_GETX          104      0.00%      0.00%
system.ruby.L2Cache_Controller.MT.L1_PUTX      1163724      0.00%      0.00%
system.ruby.L2Cache_Controller.MT.L2_Replacement          205      0.00%      0.00%
system.ruby.L2Cache_Controller.MT.L2_Replacement_clean          584      0.00%      0.00%
system.ruby.L2Cache_Controller.M_I.L1_GETS            3      0.00%      0.00%
system.ruby.L2Cache_Controller.M_I.Mem_Ack       200671      0.00%      0.00%
system.ruby.L2Cache_Controller.MT_I.WB_Data           71      0.00%      0.00%
system.ruby.L2Cache_Controller.MT_I.WB_Data_clean           32      0.00%      0.00%
system.ruby.L2Cache_Controller.MT_I.Ack_all          102      0.00%      0.00%
system.ruby.L2Cache_Controller.MCT_I.WB_Data          341      0.00%      0.00%
system.ruby.L2Cache_Controller.MCT_I.WB_Data_clean           60      0.00%      0.00%
system.ruby.L2Cache_Controller.MCT_I.Ack_all          183      0.00%      0.00%
system.ruby.L2Cache_Controller.I_I.Ack             77      0.00%      0.00%
system.ruby.L2Cache_Controller.I_I.Ack_all           11      0.00%      0.00%
system.ruby.L2Cache_Controller.S_I.Ack          50081      0.00%      0.00%
system.ruby.L2Cache_Controller.S_I.Ack_all         6915      0.00%      0.00%
system.ruby.L2Cache_Controller.ISS.L1_GETS           16      0.00%      0.00%
system.ruby.L2Cache_Controller.ISS.Mem_Data       166433      0.00%      0.00%
system.ruby.L2Cache_Controller.IS.L1_GETS           12      0.00%      0.00%
system.ruby.L2Cache_Controller.IS.Mem_Data           16      0.00%      0.00%
system.ruby.L2Cache_Controller.IM.Mem_Data       296366      0.00%      0.00%
system.ruby.L2Cache_Controller.SS_MB.L1_GETS            1      0.00%      0.00%
system.ruby.L2Cache_Controller.SS_MB.Exclusive_Unblock       204829      0.00%      0.00%
system.ruby.L2Cache_Controller.MT_MB.L1_GETS            8      0.00%      0.00%
system.ruby.L2Cache_Controller.MT_MB.Exclusive_Unblock      1195080      0.00%      0.00%
system.ruby.L2Cache_Controller.MT_IIB.L1_GETS        33309      0.00%      0.00%
system.ruby.L2Cache_Controller.MT_IIB.L1_PUTX            4      0.00%      0.00%
system.ruby.L2Cache_Controller.MT_IIB.WB_Data       171241      0.00%      0.00%
system.ruby.L2Cache_Controller.MT_IIB.WB_Data_clean        13296      0.00%      0.00%
system.ruby.L2Cache_Controller.MT_IIB.Unblock        27239      0.00%      0.00%
system.ruby.L2Cache_Controller.MT_IB.WB_Data        27221      0.00%      0.00%
system.ruby.L2Cache_Controller.MT_IB.WB_Data_clean           18      0.00%      0.00%
system.ruby.L2Cache_Controller.MT_SB.L1_GETS          333      0.00%      0.00%
system.ruby.L2Cache_Controller.MT_SB.Unblock       184537      0.00%      0.00%

---------- End Simulation Statistics   ----------
