
---------- Begin Simulation Statistics ----------
sim_seconds                                  0.902475                       # Number of seconds simulated
sim_ticks                                902475024000                       # Number of ticks simulated
final_tick                               902475024000                       # Number of ticks from beginning of simulation (restored from checkpoints and never reset)
sim_freq                                 1000000000000                       # Frequency of simulated ticks
host_inst_rate                                 125019                       # Simulator instruction rate (inst/s)
host_op_rate                                   252391                       # Simulator op (including micro ops) rate (op/s)
host_tick_rate                              111366548                       # Simulator tick rate (ticks/s)
host_mem_usage                                 800124                       # Number of bytes of host memory used
host_seconds                                  8103.65                       # Real time elapsed on the host
sim_insts                                  1013107321                       # Number of instructions simulated
sim_ops                                    2045286697                       # Number of ops (including micro ops) simulated
system.voltage_domain.voltage                       1                       # Voltage in Volts
system.clk_domain.clock                          1000                       # Clock period in ticks
system.mem_ctrls.bytes_read::ruby.dir_cntrl0      4551552                       # Number of bytes read from this memory
system.mem_ctrls.bytes_read::total            4551552                       # Number of bytes read from this memory
system.mem_ctrls.num_reads::ruby.dir_cntrl0        71118                       # Number of read requests responded to by this memory
system.mem_ctrls.num_reads::total               71118                       # Number of read requests responded to by this memory
system.mem_ctrls.bw_read::ruby.dir_cntrl0      5043410                       # Total read bandwidth from this memory (bytes/s)
system.mem_ctrls.bw_read::total               5043410                       # Total read bandwidth from this memory (bytes/s)
system.mem_ctrls.bw_total::ruby.dir_cntrl0      5043410                       # Total bandwidth to/from this memory (bytes/s)
system.mem_ctrls.bw_total::total              5043410                       # Total bandwidth to/from this memory (bytes/s)
system.mem_ctrls.readReqs                       71118                       # Number of read requests accepted
system.mem_ctrls.writeReqs                          0                       # Number of write requests accepted
system.mem_ctrls.readBursts                     71118                       # Number of DRAM read bursts, including those serviced by the write queue
system.mem_ctrls.writeBursts                        0                       # Number of DRAM write bursts, including those merged in the write queue
system.mem_ctrls.bytesReadDRAM                4551552                       # Total number of bytes read from DRAM
system.mem_ctrls.bytesReadWrQ                       0                       # Total number of bytes read from write queue
system.mem_ctrls.bytesWritten                       0                       # Total number of bytes written to DRAM
system.mem_ctrls.bytesReadSys                 4551552                       # Total read bytes from the system interface side
system.mem_ctrls.bytesWrittenSys                    0                       # Total written bytes from the system interface side
system.mem_ctrls.servicedByWrQ                      0                       # Number of DRAM read bursts serviced by the write queue
system.mem_ctrls.mergedWrBursts                     0                       # Number of DRAM write bursts merged with an existing one
system.mem_ctrls.neitherReadNorWriteReqs            0                       # Number of requests that are neither read nor write
system.mem_ctrls.perBankRdBursts::0              4283                       # Per bank write bursts
system.mem_ctrls.perBankRdBursts::1              4317                       # Per bank write bursts
system.mem_ctrls.perBankRdBursts::2              4474                       # Per bank write bursts
system.mem_ctrls.perBankRdBursts::3              4455                       # Per bank write bursts
system.mem_ctrls.perBankRdBursts::4              4486                       # Per bank write bursts
system.mem_ctrls.perBankRdBursts::5              4527                       # Per bank write bursts
system.mem_ctrls.perBankRdBursts::6              4380                       # Per bank write bursts
system.mem_ctrls.perBankRdBursts::7              4391                       # Per bank write bursts
system.mem_ctrls.perBankRdBursts::8              4462                       # Per bank write bursts
system.mem_ctrls.perBankRdBursts::9              4524                       # Per bank write bursts
system.mem_ctrls.perBankRdBursts::10             4596                       # Per bank write bursts
system.mem_ctrls.perBankRdBursts::11             4640                       # Per bank write bursts
system.mem_ctrls.perBankRdBursts::12             4481                       # Per bank write bursts
system.mem_ctrls.perBankRdBursts::13             4430                       # Per bank write bursts
system.mem_ctrls.perBankRdBursts::14             4398                       # Per bank write bursts
system.mem_ctrls.perBankRdBursts::15             4274                       # Per bank write bursts
system.mem_ctrls.perBankWrBursts::0                 0                       # Per bank write bursts
system.mem_ctrls.perBankWrBursts::1                 0                       # Per bank write bursts
system.mem_ctrls.perBankWrBursts::2                 0                       # Per bank write bursts
system.mem_ctrls.perBankWrBursts::3                 0                       # Per bank write bursts
system.mem_ctrls.perBankWrBursts::4                 0                       # Per bank write bursts
system.mem_ctrls.perBankWrBursts::5                 0                       # Per bank write bursts
system.mem_ctrls.perBankWrBursts::6                 0                       # Per bank write bursts
system.mem_ctrls.perBankWrBursts::7                 0                       # Per bank write bursts
system.mem_ctrls.perBankWrBursts::8                 0                       # Per bank write bursts
system.mem_ctrls.perBankWrBursts::9                 0                       # Per bank write bursts
system.mem_ctrls.perBankWrBursts::10                0                       # Per bank write bursts
system.mem_ctrls.perBankWrBursts::11                0                       # Per bank write bursts
system.mem_ctrls.perBankWrBursts::12                0                       # Per bank write bursts
system.mem_ctrls.perBankWrBursts::13                0                       # Per bank write bursts
system.mem_ctrls.perBankWrBursts::14                0                       # Per bank write bursts
system.mem_ctrls.perBankWrBursts::15                0                       # Per bank write bursts
system.mem_ctrls.numRdRetry                         0                       # Number of times read queue was full causing retry
system.mem_ctrls.numWrRetry                         0                       # Number of times write queue was full causing retry
system.mem_ctrls.totGap                  902474929500                       # Total gap between requests
system.mem_ctrls.readPktSize::0                     0                       # Read request sizes (log2)
system.mem_ctrls.readPktSize::1                     0                       # Read request sizes (log2)
system.mem_ctrls.readPktSize::2                     0                       # Read request sizes (log2)
system.mem_ctrls.readPktSize::3                     0                       # Read request sizes (log2)
system.mem_ctrls.readPktSize::4                     0                       # Read request sizes (log2)
system.mem_ctrls.readPktSize::5                     0                       # Read request sizes (log2)
system.mem_ctrls.readPktSize::6                 71118                       # Read request sizes (log2)
system.mem_ctrls.writePktSize::0                    0                       # Write request sizes (log2)
system.mem_ctrls.writePktSize::1                    0                       # Write request sizes (log2)
system.mem_ctrls.writePktSize::2                    0                       # Write request sizes (log2)
system.mem_ctrls.writePktSize::3                    0                       # Write request sizes (log2)
system.mem_ctrls.writePktSize::4                    0                       # Write request sizes (log2)
system.mem_ctrls.writePktSize::5                    0                       # Write request sizes (log2)
system.mem_ctrls.writePktSize::6                    0                       # Write request sizes (log2)
system.mem_ctrls.rdQLenPdf::0                   71118                       # What read queue length does an incoming req see
system.mem_ctrls.rdQLenPdf::1                       0                       # What read queue length does an incoming req see
system.mem_ctrls.rdQLenPdf::2                       0                       # What read queue length does an incoming req see
system.mem_ctrls.rdQLenPdf::3                       0                       # What read queue length does an incoming req see
system.mem_ctrls.rdQLenPdf::4                       0                       # What read queue length does an incoming req see
system.mem_ctrls.rdQLenPdf::5                       0                       # What read queue length does an incoming req see
system.mem_ctrls.rdQLenPdf::6                       0                       # What read queue length does an incoming req see
system.mem_ctrls.rdQLenPdf::7                       0                       # What read queue length does an incoming req see
system.mem_ctrls.rdQLenPdf::8                       0                       # What read queue length does an incoming req see
system.mem_ctrls.rdQLenPdf::9                       0                       # What read queue length does an incoming req see
system.mem_ctrls.rdQLenPdf::10                      0                       # What read queue length does an incoming req see
system.mem_ctrls.rdQLenPdf::11                      0                       # What read queue length does an incoming req see
system.mem_ctrls.rdQLenPdf::12                      0                       # What read queue length does an incoming req see
system.mem_ctrls.rdQLenPdf::13                      0                       # What read queue length does an incoming req see
system.mem_ctrls.rdQLenPdf::14                      0                       # What read queue length does an incoming req see
system.mem_ctrls.rdQLenPdf::15                      0                       # What read queue length does an incoming req see
system.mem_ctrls.rdQLenPdf::16                      0                       # What read queue length does an incoming req see
system.mem_ctrls.rdQLenPdf::17                      0                       # What read queue length does an incoming req see
system.mem_ctrls.rdQLenPdf::18                      0                       # What read queue length does an incoming req see
system.mem_ctrls.rdQLenPdf::19                      0                       # What read queue length does an incoming req see
system.mem_ctrls.rdQLenPdf::20                      0                       # What read queue length does an incoming req see
system.mem_ctrls.rdQLenPdf::21                      0                       # What read queue length does an incoming req see
system.mem_ctrls.rdQLenPdf::22                      0                       # What read queue length does an incoming req see
system.mem_ctrls.rdQLenPdf::23                      0                       # What read queue length does an incoming req see
system.mem_ctrls.rdQLenPdf::24                      0                       # What read queue length does an incoming req see
system.mem_ctrls.rdQLenPdf::25                      0                       # What read queue length does an incoming req see
system.mem_ctrls.rdQLenPdf::26                      0                       # What read queue length does an incoming req see
system.mem_ctrls.rdQLenPdf::27                      0                       # What read queue length does an incoming req see
system.mem_ctrls.rdQLenPdf::28                      0                       # What read queue length does an incoming req see
system.mem_ctrls.rdQLenPdf::29                      0                       # What read queue length does an incoming req see
system.mem_ctrls.rdQLenPdf::30                      0                       # What read queue length does an incoming req see
system.mem_ctrls.rdQLenPdf::31                      0                       # What read queue length does an incoming req see
system.mem_ctrls.wrQLenPdf::0                       0                       # What write queue length does an incoming req see
system.mem_ctrls.wrQLenPdf::1                       0                       # What write queue length does an incoming req see
system.mem_ctrls.wrQLenPdf::2                       0                       # What write queue length does an incoming req see
system.mem_ctrls.wrQLenPdf::3                       0                       # What write queue length does an incoming req see
system.mem_ctrls.wrQLenPdf::4                       0                       # What write queue length does an incoming req see
system.mem_ctrls.wrQLenPdf::5                       0                       # What write queue length does an incoming req see
system.mem_ctrls.wrQLenPdf::6                       0                       # What write queue length does an incoming req see
system.mem_ctrls.wrQLenPdf::7                       0                       # What write queue length does an incoming req see
system.mem_ctrls.wrQLenPdf::8                       0                       # What write queue length does an incoming req see
system.mem_ctrls.wrQLenPdf::9                       0                       # What write queue length does an incoming req see
system.mem_ctrls.wrQLenPdf::10                      0                       # What write queue length does an incoming req see
system.mem_ctrls.wrQLenPdf::11                      0                       # What write queue length does an incoming req see
system.mem_ctrls.wrQLenPdf::12                      0                       # What write queue length does an incoming req see
system.mem_ctrls.wrQLenPdf::13                      0                       # What write queue length does an incoming req see
system.mem_ctrls.wrQLenPdf::14                      0                       # What write queue length does an incoming req see
system.mem_ctrls.wrQLenPdf::15                      0                       # What write queue length does an incoming req see
system.mem_ctrls.wrQLenPdf::16                      0                       # What write queue length does an incoming req see
system.mem_ctrls.wrQLenPdf::17                      0                       # What write queue length does an incoming req see
system.mem_ctrls.wrQLenPdf::18                      0                       # What write queue length does an incoming req see
system.mem_ctrls.wrQLenPdf::19                      0                       # What write queue length does an incoming req see
system.mem_ctrls.wrQLenPdf::20                      0                       # What write queue length does an incoming req see
system.mem_ctrls.wrQLenPdf::21                      0                       # What write queue length does an incoming req see
system.mem_ctrls.wrQLenPdf::22                      0                       # What write queue length does an incoming req see
system.mem_ctrls.wrQLenPdf::23                      0                       # What write queue length does an incoming req see
system.mem_ctrls.wrQLenPdf::24                      0                       # What write queue length does an incoming req see
system.mem_ctrls.wrQLenPdf::25                      0                       # What write queue length does an incoming req see
system.mem_ctrls.wrQLenPdf::26                      0                       # What write queue length does an incoming req see
system.mem_ctrls.wrQLenPdf::27                      0                       # What write queue length does an incoming req see
system.mem_ctrls.wrQLenPdf::28                      0                       # What write queue length does an incoming req see
system.mem_ctrls.wrQLenPdf::29                      0                       # What write queue length does an incoming req see
system.mem_ctrls.wrQLenPdf::30                      0                       # What write queue length does an incoming req see
system.mem_ctrls.wrQLenPdf::31                      0                       # What write queue length does an incoming req see
system.mem_ctrls.wrQLenPdf::32                      0                       # What write queue length does an incoming req see
system.mem_ctrls.wrQLenPdf::33                      0                       # What write queue length does an incoming req see
system.mem_ctrls.wrQLenPdf::34                      0                       # What write queue length does an incoming req see
system.mem_ctrls.wrQLenPdf::35                      0                       # What write queue length does an incoming req see
system.mem_ctrls.wrQLenPdf::36                      0                       # What write queue length does an incoming req see
system.mem_ctrls.wrQLenPdf::37                      0                       # What write queue length does an incoming req see
system.mem_ctrls.wrQLenPdf::38                      0                       # What write queue length does an incoming req see
system.mem_ctrls.wrQLenPdf::39                      0                       # What write queue length does an incoming req see
system.mem_ctrls.wrQLenPdf::40                      0                       # What write queue length does an incoming req see
system.mem_ctrls.wrQLenPdf::41                      0                       # What write queue length does an incoming req see
system.mem_ctrls.wrQLenPdf::42                      0                       # What write queue length does an incoming req see
system.mem_ctrls.wrQLenPdf::43                      0                       # What write queue length does an incoming req see
system.mem_ctrls.wrQLenPdf::44                      0                       # What write queue length does an incoming req see
system.mem_ctrls.wrQLenPdf::45                      0                       # What write queue length does an incoming req see
system.mem_ctrls.wrQLenPdf::46                      0                       # What write queue length does an incoming req see
system.mem_ctrls.wrQLenPdf::47                      0                       # What write queue length does an incoming req see
system.mem_ctrls.wrQLenPdf::48                      0                       # What write queue length does an incoming req see
system.mem_ctrls.wrQLenPdf::49                      0                       # What write queue length does an incoming req see
system.mem_ctrls.wrQLenPdf::50                      0                       # What write queue length does an incoming req see
system.mem_ctrls.wrQLenPdf::51                      0                       # What write queue length does an incoming req see
system.mem_ctrls.wrQLenPdf::52                      0                       # What write queue length does an incoming req see
system.mem_ctrls.wrQLenPdf::53                      0                       # What write queue length does an incoming req see
system.mem_ctrls.wrQLenPdf::54                      0                       # What write queue length does an incoming req see
system.mem_ctrls.wrQLenPdf::55                      0                       # What write queue length does an incoming req see
system.mem_ctrls.wrQLenPdf::56                      0                       # What write queue length does an incoming req see
system.mem_ctrls.wrQLenPdf::57                      0                       # What write queue length does an incoming req see
system.mem_ctrls.wrQLenPdf::58                      0                       # What write queue length does an incoming req see
system.mem_ctrls.wrQLenPdf::59                      0                       # What write queue length does an incoming req see
system.mem_ctrls.wrQLenPdf::60                      0                       # What write queue length does an incoming req see
system.mem_ctrls.wrQLenPdf::61                      0                       # What write queue length does an incoming req see
system.mem_ctrls.wrQLenPdf::62                      0                       # What write queue length does an incoming req see
system.mem_ctrls.wrQLenPdf::63                      0                       # What write queue length does an incoming req see
system.mem_ctrls.bytesPerActivate::samples         7142                       # Bytes accessed per row activation
system.mem_ctrls.bytesPerActivate::mean    637.123495                       # Bytes accessed per row activation
system.mem_ctrls.bytesPerActivate::gmean   477.528048                       # Bytes accessed per row activation
system.mem_ctrls.bytesPerActivate::stdev   381.221012                       # Bytes accessed per row activation
system.mem_ctrls.bytesPerActivate::0-127          575      8.05%      8.05% # Bytes accessed per row activation
system.mem_ctrls.bytesPerActivate::128-255          438      6.13%     14.18% # Bytes accessed per row activation
system.mem_ctrls.bytesPerActivate::256-383         2028     28.40%     42.58% # Bytes accessed per row activation
system.mem_ctrls.bytesPerActivate::384-511          170      2.38%     44.96% # Bytes accessed per row activation
system.mem_ctrls.bytesPerActivate::512-639          145      2.03%     46.99% # Bytes accessed per row activation
system.mem_ctrls.bytesPerActivate::640-767          238      3.33%     50.32% # Bytes accessed per row activation
system.mem_ctrls.bytesPerActivate::768-895          288      4.03%     54.35% # Bytes accessed per row activation
system.mem_ctrls.bytesPerActivate::896-1023          130      1.82%     56.17% # Bytes accessed per row activation
system.mem_ctrls.bytesPerActivate::1024-1151         3130     43.83%    100.00% # Bytes accessed per row activation
system.mem_ctrls.bytesPerActivate::total         7142                       # Bytes accessed per row activation
system.mem_ctrls.totQLat                    425232250                       # Total ticks spent queuing
system.mem_ctrls.totMemAccLat              1758694750                       # Total ticks spent from burst creation until serviced by the DRAM
system.mem_ctrls.totBusLat                  355590000                       # Total ticks spent in databus transfers
system.mem_ctrls.avgQLat                      5979.25                       # Average queueing delay per DRAM burst
system.mem_ctrls.avgBusLat                    5000.00                       # Average bus latency per DRAM burst
system.mem_ctrls.avgMemAccLat                24729.25                       # Average memory access latency per DRAM burst
system.mem_ctrls.avgRdBW                         5.04                       # Average DRAM read bandwidth in MiByte/s
system.mem_ctrls.avgWrBW                         0.00                       # Average achieved write bandwidth in MiByte/s
system.mem_ctrls.avgRdBWSys                      5.04                       # Average system read bandwidth in MiByte/s
system.mem_ctrls.avgWrBWSys                      0.00                       # Average system write bandwidth in MiByte/s
system.mem_ctrls.peakBW                      12800.00                       # Theoretical peak bandwidth in MiByte/s
system.mem_ctrls.busUtil                         0.04                       # Data bus utilization in percentage
system.mem_ctrls.busUtilRead                     0.04                       # Data bus utilization in percentage for reads
system.mem_ctrls.busUtilWrite                    0.00                       # Data bus utilization in percentage for writes
system.mem_ctrls.avgRdQLen                       1.00                       # Average read queue length when enqueuing
system.mem_ctrls.avgWrQLen                       0.00                       # Average write queue length when enqueuing
system.mem_ctrls.readRowHits                    63972                       # Number of row buffer hits during reads
system.mem_ctrls.writeRowHits                       0                       # Number of row buffer hits during writes
system.mem_ctrls.readRowHitRate                 89.95                       # Row buffer hit rate for reads
system.mem_ctrls.writeRowHitRate                  nan                       # Row buffer hit rate for writes
system.mem_ctrls.avgGap                   12689824.37                       # Average gap between requests
system.mem_ctrls.pageHitRate                    89.95                       # Row buffer hit rate, read and write combined
system.mem_ctrls_0.actEnergy                 27412560                       # Energy for activate commands per rank (pJ)
system.mem_ctrls_0.preEnergy                 14957250                       # Energy for precharge commands per rank (pJ)
system.mem_ctrls_0.readEnergy               275402400                       # Energy for read commands per rank (pJ)
system.mem_ctrls_0.writeEnergy                      0                       # Energy for write commands per rank (pJ)
system.mem_ctrls_0.refreshEnergy          58945155360                       # Energy for refresh commands per rank (pJ)
system.mem_ctrls_0.actBackEnergy          27191471805                       # Energy for active background per rank (pJ)
system.mem_ctrls_0.preBackEnergy         517631843250                       # Energy for precharge background per rank (pJ)
system.mem_ctrls_0.totalEnergy           604086242625                       # Total energy per rank (pJ)
system.mem_ctrls_0.averagePower            669.367401                       # Core power per rank (mW)
system.mem_ctrls_0.memoryStateTime::IDLE 861087319250                       # Time in different power states
system.mem_ctrls_0.memoryStateTime::REF   30135560000                       # Time in different power states
system.mem_ctrls_0.memoryStateTime::PRE_PDN            0                       # Time in different power states
system.mem_ctrls_0.memoryStateTime::ACT   11250588750                       # Time in different power states
system.mem_ctrls_0.memoryStateTime::ACT_PDN            0                       # Time in different power states
system.mem_ctrls_1.actEnergy                 26573400                       # Energy for activate commands per rank (pJ)
system.mem_ctrls_1.preEnergy                 14499375                       # Energy for precharge commands per rank (pJ)
system.mem_ctrls_1.readEnergy               279162000                       # Energy for read commands per rank (pJ)
system.mem_ctrls_1.writeEnergy                      0                       # Energy for write commands per rank (pJ)
system.mem_ctrls_1.refreshEnergy          58945155360                       # Energy for refresh commands per rank (pJ)
system.mem_ctrls_1.actBackEnergy          27553501890                       # Energy for active background per rank (pJ)
system.mem_ctrls_1.preBackEnergy         517314273000                       # Energy for precharge background per rank (pJ)
system.mem_ctrls_1.totalEnergy           604133165025                       # Total energy per rank (pJ)
system.mem_ctrls_1.averagePower            669.419394                       # Core power per rank (mW)
system.mem_ctrls_1.memoryStateTime::IDLE 860556538750                       # Time in different power states
system.mem_ctrls_1.memoryStateTime::REF   30135560000                       # Time in different power states
system.mem_ctrls_1.memoryStateTime::PRE_PDN            0                       # Time in different power states
system.mem_ctrls_1.memoryStateTime::ACT   11781267500                       # Time in different power states
system.mem_ctrls_1.memoryStateTime::ACT_PDN            0                       # Time in different power states
system.cpu_voltage_domain.voltage                   1                       # Voltage in Volts
system.cpu_clk_domain.clock                       500                       # Clock period in ticks
system.cpu0.apic_clk_domain.clock                8000                       # Clock period in ticks
system.cpu0.workload.num_syscalls                 539                       # Number of system calls
system.cpu0.numCycles                      1804950048                       # number of cpu cycles simulated
system.cpu0.numWorkItemsStarted                     0                       # number of work items this cpu started
system.cpu0.numWorkItemsCompleted                   0                       # number of work items this cpu completed
system.cpu0.committedInsts                  501325321                       # Number of instructions committed
system.cpu0.committedOps                    701968440                       # Number of ops (including micro ops) committed
system.cpu0.num_int_alu_accesses            701961025                       # Number of integer alu accesses
system.cpu0.num_fp_alu_accesses                  8465                       # Number of float alu accesses
system.cpu0.num_func_calls                       7864                       # number of times a function call or return occured
system.cpu0.num_conditional_control_insts    100260389                       # number of instructions that are conditional controls
system.cpu0.num_int_insts                   701961025                       # number of integer instructions
system.cpu0.num_fp_insts                         8465                       # number of float instructions
system.cpu0.num_int_register_reads         1604343324                       # number of times the integer registers were read
system.cpu0.num_int_register_writes         501433353                       # number of times the integer registers were written
system.cpu0.num_fp_register_reads               13748                       # number of times the floating registers were read
system.cpu0.num_fp_register_writes               6792                       # number of times the floating registers were written
system.cpu0.num_cc_register_reads           601585112                       # number of times the CC registers were read
system.cpu0.num_cc_register_writes          200570619                       # number of times the CC registers were written
system.cpu0.num_mem_refs                    300755941                       # number of memory refs
system.cpu0.num_load_insts                  200499666                       # Number of load instructions
system.cpu0.num_store_insts                 100256275                       # Number of store instructions
system.cpu0.num_idle_cycles                  0.002000                       # Number of idle cycles
system.cpu0.num_busy_cycles              1804950047.998000                       # Number of busy cycles
system.cpu0.not_idle_fraction                1.000000                       # Percentage of non-idle cycles
system.cpu0.idle_fraction                    0.000000                       # Percentage of idle cycles
system.cpu0.Branches                        100271697                       # Number of branches fetched
system.cpu0.op_class::No_OpClass                 1617      0.00%      0.00% # Class of executed instruction
system.cpu0.op_class::IntAlu                401204145     57.15%     57.15% # Class of executed instruction
system.cpu0.op_class::IntMult                     613      0.00%     57.15% # Class of executed instruction
system.cpu0.op_class::IntDiv                      224      0.00%     57.15% # Class of executed instruction
system.cpu0.op_class::FloatAdd                   5900      0.00%     57.16% # Class of executed instruction
system.cpu0.op_class::FloatCmp                      0      0.00%     57.16% # Class of executed instruction
system.cpu0.op_class::FloatCvt                      0      0.00%     57.16% # Class of executed instruction
system.cpu0.op_class::FloatMult                     0      0.00%     57.16% # Class of executed instruction
system.cpu0.op_class::FloatDiv                      0      0.00%     57.16% # Class of executed instruction
system.cpu0.op_class::FloatSqrt                     0      0.00%     57.16% # Class of executed instruction
system.cpu0.op_class::SimdAdd                       0      0.00%     57.16% # Class of executed instruction
system.cpu0.op_class::SimdAddAcc                    0      0.00%     57.16% # Class of executed instruction
system.cpu0.op_class::SimdAlu                       0      0.00%     57.16% # Class of executed instruction
system.cpu0.op_class::SimdCmp                       0      0.00%     57.16% # Class of executed instruction
system.cpu0.op_class::SimdCvt                       0      0.00%     57.16% # Class of executed instruction
system.cpu0.op_class::SimdMisc                      0      0.00%     57.16% # Class of executed instruction
system.cpu0.op_class::SimdMult                      0      0.00%     57.16% # Class of executed instruction
system.cpu0.op_class::SimdMultAcc                   0      0.00%     57.16% # Class of executed instruction
system.cpu0.op_class::SimdShift                     0      0.00%     57.16% # Class of executed instruction
system.cpu0.op_class::SimdShiftAcc                  0      0.00%     57.16% # Class of executed instruction
system.cpu0.op_class::SimdSqrt                      0      0.00%     57.16% # Class of executed instruction
system.cpu0.op_class::SimdFloatAdd                  0      0.00%     57.16% # Class of executed instruction
system.cpu0.op_class::SimdFloatAlu                  0      0.00%     57.16% # Class of executed instruction
system.cpu0.op_class::SimdFloatCmp                  0      0.00%     57.16% # Class of executed instruction
system.cpu0.op_class::SimdFloatCvt                  0      0.00%     57.16% # Class of executed instruction
system.cpu0.op_class::SimdFloatDiv                  0      0.00%     57.16% # Class of executed instruction
system.cpu0.op_class::SimdFloatMisc                 0      0.00%     57.16% # Class of executed instruction
system.cpu0.op_class::SimdFloatMult                 0      0.00%     57.16% # Class of executed instruction
system.cpu0.op_class::SimdFloatMultAcc              0      0.00%     57.16% # Class of executed instruction
system.cpu0.op_class::SimdFloatSqrt                 0      0.00%     57.16% # Class of executed instruction
system.cpu0.op_class::MemRead               200499666     28.56%     85.72% # Class of executed instruction
system.cpu0.op_class::MemWrite              100256275     14.28%    100.00% # Class of executed instruction
system.cpu0.op_class::IprAccess                     0      0.00%    100.00% # Class of executed instruction
system.cpu0.op_class::InstPrefetch                  0      0.00%    100.00% # Class of executed instruction
system.cpu0.op_class::total                 701968440                       # Class of executed instruction
system.cpu1.apic_clk_domain.clock                8000                       # Clock period in ticks
system.cpu1.numCycles                      1804801784                       # number of cpu cycles simulated
system.cpu1.numWorkItemsStarted                     0                       # number of work items this cpu started
system.cpu1.numWorkItemsCompleted                   0                       # number of work items this cpu completed
system.cpu1.committedInsts                  511782000                       # Number of instructions committed
system.cpu1.committedOps                   1343318257                       # Number of ops (including micro ops) committed
system.cpu1.num_int_alu_accesses           1230858138                       # Number of integer alu accesses
system.cpu1.num_fp_alu_accesses             144153277                       # Number of float alu accesses
system.cpu1.num_func_calls                   39501851                       # number of times a function call or return occured
system.cpu1.num_conditional_control_insts     96274857                       # number of instructions that are conditional controls
system.cpu1.num_int_insts                  1230858138                       # number of integer instructions
system.cpu1.num_fp_insts                    144153277                       # number of float instructions
system.cpu1.num_int_register_reads         2547160513                       # number of times the integer registers were read
system.cpu1.num_int_register_writes        1153778852                       # number of times the integer registers were written
system.cpu1.num_fp_register_reads           210148186                       # number of times the floating registers were read
system.cpu1.num_fp_register_writes          120182803                       # number of times the floating registers were written
system.cpu1.num_cc_register_reads           962845847                       # number of times the CC registers were read
system.cpu1.num_cc_register_writes          409509834                       # number of times the CC registers were written
system.cpu1.num_mem_refs                    227896836                       # number of memory refs
system.cpu1.num_load_insts                  145485391                       # Number of load instructions
system.cpu1.num_store_insts                  82411445                       # Number of store instructions
system.cpu1.num_idle_cycles              839882.005909                       # Number of idle cycles
system.cpu1.num_busy_cycles              1803961901.994091                       # Number of busy cycles
system.cpu1.not_idle_fraction                0.999535                       # Percentage of non-idle cycles
system.cpu1.idle_fraction                    0.000465                       # Percentage of idle cycles
system.cpu1.Branches                        155561916                       # Number of branches fetched
system.cpu1.op_class::No_OpClass             19316646      1.44%      1.44% # Class of executed instruction
system.cpu1.op_class::IntAlu                925324520     68.88%     70.32% # Class of executed instruction
system.cpu1.op_class::IntMult                 1189613      0.09%     70.41% # Class of executed instruction
system.cpu1.op_class::IntDiv                 96608652      7.19%     77.60% # Class of executed instruction
system.cpu1.op_class::FloatAdd               72981990      5.43%     83.03% # Class of executed instruction
system.cpu1.op_class::FloatCmp                      0      0.00%     83.03% # Class of executed instruction
system.cpu1.op_class::FloatCvt                      0      0.00%     83.03% # Class of executed instruction
system.cpu1.op_class::FloatMult                     0      0.00%     83.03% # Class of executed instruction
system.cpu1.op_class::FloatDiv                      0      0.00%     83.03% # Class of executed instruction
system.cpu1.op_class::FloatSqrt                     0      0.00%     83.03% # Class of executed instruction
system.cpu1.op_class::SimdAdd                       0      0.00%     83.03% # Class of executed instruction
system.cpu1.op_class::SimdAddAcc                    0      0.00%     83.03% # Class of executed instruction
system.cpu1.op_class::SimdAlu                       0      0.00%     83.03% # Class of executed instruction
system.cpu1.op_class::SimdCmp                       0      0.00%     83.03% # Class of executed instruction
system.cpu1.op_class::SimdCvt                       0      0.00%     83.03% # Class of executed instruction
system.cpu1.op_class::SimdMisc                      0      0.00%     83.03% # Class of executed instruction
system.cpu1.op_class::SimdMult                      0      0.00%     83.03% # Class of executed instruction
system.cpu1.op_class::SimdMultAcc                   0      0.00%     83.03% # Class of executed instruction
system.cpu1.op_class::SimdShift                     0      0.00%     83.03% # Class of executed instruction
system.cpu1.op_class::SimdShiftAcc                  0      0.00%     83.03% # Class of executed instruction
system.cpu1.op_class::SimdSqrt                      0      0.00%     83.03% # Class of executed instruction
system.cpu1.op_class::SimdFloatAdd                  0      0.00%     83.03% # Class of executed instruction
system.cpu1.op_class::SimdFloatAlu                  0      0.00%     83.03% # Class of executed instruction
system.cpu1.op_class::SimdFloatCmp                  0      0.00%     83.03% # Class of executed instruction
system.cpu1.op_class::SimdFloatCvt                  0      0.00%     83.03% # Class of executed instruction
system.cpu1.op_class::SimdFloatDiv                  0      0.00%     83.03% # Class of executed instruction
system.cpu1.op_class::SimdFloatMisc                 0      0.00%     83.03% # Class of executed instruction
system.cpu1.op_class::SimdFloatMult                 0      0.00%     83.03% # Class of executed instruction
system.cpu1.op_class::SimdFloatMultAcc              0      0.00%     83.03% # Class of executed instruction
system.cpu1.op_class::SimdFloatSqrt                 0      0.00%     83.03% # Class of executed instruction
system.cpu1.op_class::MemRead               145485391     10.83%     93.87% # Class of executed instruction
system.cpu1.op_class::MemWrite               82411445      6.13%    100.00% # Class of executed instruction
system.cpu1.op_class::IprAccess                     0      0.00%    100.00% # Class of executed instruction
system.cpu1.op_class::InstPrefetch                  0      0.00%    100.00% # Class of executed instruction
system.cpu1.op_class::total                1343318257                       # Class of executed instruction
system.ruby.clk_domain.clock                      500                       # Clock period in ticks
system.ruby.delayHist::bucket_size                  2                       # delay histogram for all message
system.ruby.delayHist::max_bucket                  19                       # delay histogram for all message
system.ruby.delayHist::samples               13481896                       # delay histogram for all message
system.ruby.delayHist::mean                  0.605420                       # delay histogram for all message
system.ruby.delayHist::stdev                 2.119236                       # delay histogram for all message
system.ruby.delayHist                    |    12462871     92.44%     92.44% |          79      0.00%     92.44% |         144      0.00%     92.44% |           2      0.00%     92.44% |     1017701      7.55%     99.99% |           6      0.00%     99.99% |           2      0.00%     99.99% |           0      0.00%     99.99% |           4      0.00%     99.99% |        1087      0.01%    100.00% # delay histogram for all message
system.ruby.delayHist::total                 13481896                       # delay histogram for all message
system.ruby.outstanding_req_hist::bucket_size            1                      
system.ruby.outstanding_req_hist::max_bucket            9                      
system.ruby.outstanding_req_hist::samples   1776112997                      
system.ruby.outstanding_req_hist::mean       1.000322                      
system.ruby.outstanding_req_hist::gmean      1.000224                      
system.ruby.outstanding_req_hist::stdev      0.017953                      
system.ruby.outstanding_req_hist         |           0      0.00%      0.00% |  1775540353     99.97%     99.97% |      572644      0.03%    100.00% |           0      0.00%    100.00% |           0      0.00%    100.00% |           0      0.00%    100.00% |           0      0.00%    100.00% |           0      0.00%    100.00% |           0      0.00%    100.00% |           0      0.00%    100.00%
system.ruby.outstanding_req_hist::total    1776112997                      
system.ruby.latency_hist::bucket_size             128                      
system.ruby.latency_hist::max_bucket             1279                      
system.ruby.latency_hist::samples          1776112997                      
system.ruby.latency_hist::mean               1.032438                      
system.ruby.latency_hist::gmean              1.005115                      
system.ruby.latency_hist::stdev              1.160513                      
system.ruby.latency_hist                 |  1776105851    100.00%    100.00% |        5220      0.00%    100.00% |         718      0.00%    100.00% |         474      0.00%    100.00% |         451      0.00%    100.00% |         283      0.00%    100.00% |           0      0.00%    100.00% |           0      0.00%    100.00% |           0      0.00%    100.00% |           0      0.00%    100.00%
system.ruby.latency_hist::total            1776112997                      
system.ruby.hit_latency_hist::bucket_size          128                      
system.ruby.hit_latency_hist::max_bucket         1279                      
system.ruby.hit_latency_hist::samples      1776112997                      
system.ruby.hit_latency_hist::mean           1.032438                      
system.ruby.hit_latency_hist::gmean          1.005115                      
system.ruby.hit_latency_hist::stdev          1.160513                      
system.ruby.hit_latency_hist             |  1776105851    100.00%    100.00% |        5220      0.00%    100.00% |         718      0.00%    100.00% |         474      0.00%    100.00% |         451      0.00%    100.00% |         283      0.00%    100.00% |           0      0.00%    100.00% |           0      0.00%    100.00% |           0      0.00%    100.00% |           0      0.00%    100.00%
system.ruby.hit_latency_hist::total        1776112997                      
system.ruby.l0_cntrl0.Dcache.demand_hits    300755378                       # Number of cache demand hits
system.ruby.l0_cntrl0.Dcache.demand_misses          635                       # Number of cache demand misses
system.ruby.l0_cntrl0.Dcache.demand_accesses    300756013                       # Number of cache demand accesses
system.ruby.l0_cntrl0.Icache.demand_hits    601609516                       # Number of cache demand hits
system.ruby.l0_cntrl0.Icache.demand_misses         2320                       # Number of cache demand misses
system.ruby.l0_cntrl0.Icache.demand_accesses    601611836                       # Number of cache demand accesses
system.ruby.l0_cntrl0.Zcache.demand_hits        39821                       # Number of cache demand hits
system.ruby.l0_cntrl0.Zcache.demand_misses            0                       # Number of cache demand misses
system.ruby.l0_cntrl0.Zcache.demand_accesses        39821                       # Number of cache demand accesses
system.ruby.l0_cntrl1.Dcache.demand_hits    224762861                       # Number of cache demand hits
system.ruby.l0_cntrl1.Dcache.demand_misses      3706547                       # Number of cache demand misses
system.ruby.l0_cntrl1.Dcache.demand_accesses    228469408                       # Number of cache demand accesses
system.ruby.l0_cntrl1.Icache.demand_hits    645271573                       # Number of cache demand hits
system.ruby.l0_cntrl1.Icache.demand_misses         4167                       # Number of cache demand misses
system.ruby.l0_cntrl1.Icache.demand_accesses    645275740                       # Number of cache demand accesses
system.ruby.l0_cntrl1.Zcache.demand_hits     58975140                       # Number of cache demand hits
system.ruby.l0_cntrl1.Zcache.demand_misses            0                       # Number of cache demand misses
system.ruby.l0_cntrl1.Zcache.demand_accesses     58975140                       # Number of cache demand accesses
system.ruby.l1_cntrl0.cache.demand_hits          1264                       # Number of cache demand hits
system.ruby.l1_cntrl0.cache.demand_misses         1691                       # Number of cache demand misses
system.ruby.l1_cntrl0.cache.demand_accesses         2955                       # Number of cache demand accesses
system.ruby.l1_cntrl0.zcache.demand_hits            0                       # Number of cache demand hits
system.ruby.l1_cntrl0.zcache.demand_misses            0                       # Number of cache demand misses
system.ruby.l1_cntrl0.zcache.demand_accesses            0                       # Number of cache demand accesses
system.ruby.l1_cntrl1.cache.demand_hits       1772832                       # Number of cache demand hits
system.ruby.l1_cntrl1.cache.demand_misses      1937882                       # Number of cache demand misses
system.ruby.l1_cntrl1.cache.demand_accesses      3710714                       # Number of cache demand accesses
system.ruby.l1_cntrl1.zcache.demand_hits       573555                       # Number of cache demand hits
system.ruby.l1_cntrl1.zcache.demand_misses            1                       # Number of cache demand misses
system.ruby.l1_cntrl1.zcache.demand_accesses       573556                       # Number of cache demand accesses
system.ruby.l2_cntrl0.L2cache.demand_hits      1868304                       # Number of cache demand hits
system.ruby.l2_cntrl0.L2cache.demand_misses        71269                       # Number of cache demand misses
system.ruby.l2_cntrl0.L2cache.demand_accesses      1939573                       # Number of cache demand accesses
system.ruby.l2_cntrl0.ZL2cache.demand_hits       307444                       # Number of cache demand hits
system.ruby.l2_cntrl0.ZL2cache.demand_misses            0                       # Number of cache demand misses
system.ruby.l2_cntrl0.ZL2cache.demand_accesses       307444                       # Number of cache demand accesses
system.ruby.memctrl_clk_domain.clock             1500                       # Clock period in ticks
system.ruby.network.routers0.percent_links_utilized            0                      
system.ruby.network.routers1.percent_links_utilized            0                      
system.ruby.network.routers2.percent_links_utilized     0.000282                      
system.ruby.network.routers2.msg_count.Control::0         1691                      
system.ruby.network.routers2.msg_count.Request_Control::2          130                      
system.ruby.network.routers2.msg_count.Response_Data::1         1867                      
system.ruby.network.routers2.msg_count.Response_Control::1           68                      
system.ruby.network.routers2.msg_count.Response_Control::2         1690                      
system.ruby.network.routers2.msg_bytes.Control::0        13528                      
system.ruby.network.routers2.msg_bytes.Request_Control::2         1040                      
system.ruby.network.routers2.msg_bytes.Response_Data::1       134424                      
system.ruby.network.routers2.msg_bytes.Response_Control::1          544                      
system.ruby.network.routers2.msg_bytes.Response_Control::2        13520                      
system.ruby.network.routers3.percent_links_utilized     0.462243                      
system.ruby.network.routers3.msg_count.Control::0      1937882                      
system.ruby.network.routers3.msg_count.Request_Control::2           67                      
system.ruby.network.routers3.msg_count.Response_Data::1      1937951                      
system.ruby.network.routers3.msg_count.Response_Control::1      1928337                      
system.ruby.network.routers3.msg_count.Response_Control::2      1936036                      
system.ruby.network.routers3.msg_count.Writeback_Data::0      1025111                      
system.ruby.network.routers3.msg_count.Writeback_Control::0       903156                      
system.ruby.network.routers3.msg_bytes.Control::0     15503056                      
system.ruby.network.routers3.msg_bytes.Request_Control::2          536                      
system.ruby.network.routers3.msg_bytes.Response_Data::1    139532472                      
system.ruby.network.routers3.msg_bytes.Response_Control::1     15426696                      
system.ruby.network.routers3.msg_bytes.Response_Control::2     15488288                      
system.ruby.network.routers3.msg_bytes.Writeback_Data::0     73807992                      
system.ruby.network.routers3.msg_bytes.Writeback_Control::0      7225248                      
system.ruby.network.routers4.percent_links_utilized     0.472337                      
system.ruby.network.routers4.msg_count.Control::0      2010691                      
system.ruby.network.routers4.msg_count.Request_Control::2          197                      
system.ruby.network.routers4.msg_count.Response_Data::1      2010635                      
system.ruby.network.routers4.msg_count.Response_Control::1      1928311                      
system.ruby.network.routers4.msg_count.Response_Control::2      1937726                      
system.ruby.network.routers4.msg_count.Writeback_Data::0      1025111                      
system.ruby.network.routers4.msg_count.Writeback_Control::0       903156                      
system.ruby.network.routers4.msg_bytes.Control::0     16085528                      
system.ruby.network.routers4.msg_bytes.Request_Control::2         1576                      
system.ruby.network.routers4.msg_bytes.Response_Data::1    144765720                      
system.ruby.network.routers4.msg_bytes.Response_Control::1     15426488                      
system.ruby.network.routers4.msg_bytes.Response_Control::2     15501808                      
system.ruby.network.routers4.msg_bytes.Writeback_Data::0     73807992                      
system.ruby.network.routers4.msg_bytes.Writeback_Control::0      7225248                      
system.ruby.network.routers5.percent_links_utilized     0.009850                      
system.ruby.network.routers5.msg_count.Control::0        71118                      
system.ruby.network.routers5.msg_count.Response_Data::1        71118                      
system.ruby.network.routers5.msg_bytes.Control::0       568944                      
system.ruby.network.routers5.msg_bytes.Response_Data::1      5120496                      
system.ruby.network.routers6.percent_links_utilized     0.157452                      
system.ruby.network.routers6.msg_count.Control::0      2010691                      
system.ruby.network.routers6.msg_count.Request_Control::2          197                      
system.ruby.network.routers6.msg_count.Response_Data::1      2010786                      
system.ruby.network.routers6.msg_count.Response_Control::1      1928358                      
system.ruby.network.routers6.msg_count.Response_Control::2      1937726                      
system.ruby.network.routers6.msg_count.Writeback_Data::0      1025111                      
system.ruby.network.routers6.msg_count.Writeback_Control::0       903156                      
system.ruby.network.routers6.msg_bytes.Control::0     16085528                      
system.ruby.network.routers6.msg_bytes.Request_Control::2         1576                      
system.ruby.network.routers6.msg_bytes.Response_Data::1    144776592                      
system.ruby.network.routers6.msg_bytes.Response_Control::1     15426864                      
system.ruby.network.routers6.msg_bytes.Response_Control::2     15501808                      
system.ruby.network.routers6.msg_bytes.Writeback_Data::0     73807992                      
system.ruby.network.routers6.msg_bytes.Writeback_Control::0      7225248                      
system.ruby.network.msg_count.Control         6032073                      
system.ruby.network.msg_count.Request_Control          591                      
system.ruby.network.msg_count.Response_Data      6032357                      
system.ruby.network.msg_count.Response_Control     11598252                      
system.ruby.network.msg_count.Writeback_Data      3075333                      
system.ruby.network.msg_count.Writeback_Control      2709468                      
system.ruby.network.msg_byte.Control         48256584                      
system.ruby.network.msg_byte.Request_Control         4728                      
system.ruby.network.msg_byte.Response_Data    434329704                      
system.ruby.network.msg_byte.Response_Control     92786016                      
system.ruby.network.msg_byte.Writeback_Data    221423976                      
system.ruby.network.msg_byte.Writeback_Control     21675744                      
system.ruby.network.routers0.throttle0.link_utilization            0                      
system.ruby.network.routers0.throttle1.link_utilization            0                      
system.ruby.network.routers1.throttle0.link_utilization            0                      
system.ruby.network.routers1.throttle1.link_utilization            0                      
system.ruby.network.routers2.throttle0.link_utilization     0.000421                      
system.ruby.network.routers2.throttle0.msg_count.Request_Control::2          130                      
system.ruby.network.routers2.throttle0.msg_count.Response_Data::1         1670                      
system.ruby.network.routers2.throttle0.msg_count.Response_Control::1           42                      
system.ruby.network.routers2.throttle0.msg_bytes.Request_Control::2         1040                      
system.ruby.network.routers2.throttle0.msg_bytes.Response_Data::1       120240                      
system.ruby.network.routers2.throttle0.msg_bytes.Response_Control::1          336                      
system.ruby.network.routers2.throttle1.link_utilization     0.000143                      
system.ruby.network.routers2.throttle1.msg_count.Control::0         1691                      
system.ruby.network.routers2.throttle1.msg_count.Response_Data::1          197                      
system.ruby.network.routers2.throttle1.msg_count.Response_Control::1           26                      
system.ruby.network.routers2.throttle1.msg_count.Response_Control::2         1690                      
system.ruby.network.routers2.throttle1.msg_bytes.Control::0        13528                      
system.ruby.network.routers2.throttle1.msg_bytes.Response_Data::1        14184                      
system.ruby.network.routers2.throttle1.msg_bytes.Response_Control::1          208                      
system.ruby.network.routers2.throttle1.msg_bytes.Response_Control::2        13520                      
system.ruby.network.routers3.throttle0.link_utilization     0.536555                      
system.ruby.network.routers3.throttle0.msg_count.Request_Control::2           67                      
system.ruby.network.routers3.throttle0.msg_count.Response_Data::1      1937859                      
system.ruby.network.routers3.throttle0.msg_count.Response_Control::1      1928316                      
system.ruby.network.routers3.throttle0.msg_bytes.Request_Control::2          536                      
system.ruby.network.routers3.throttle0.msg_bytes.Response_Data::1    139525848                      
system.ruby.network.routers3.throttle0.msg_bytes.Response_Control::1     15426528                      
system.ruby.network.routers3.throttle1.link_utilization     0.387931                      
system.ruby.network.routers3.throttle1.msg_count.Control::0      1937882                      
system.ruby.network.routers3.throttle1.msg_count.Response_Data::1           92                      
system.ruby.network.routers3.throttle1.msg_count.Response_Control::1           21                      
system.ruby.network.routers3.throttle1.msg_count.Response_Control::2      1936036                      
system.ruby.network.routers3.throttle1.msg_count.Writeback_Data::0      1025111                      
system.ruby.network.routers3.throttle1.msg_count.Writeback_Control::0       903156                      
system.ruby.network.routers3.throttle1.msg_bytes.Control::0     15503056                      
system.ruby.network.routers3.throttle1.msg_bytes.Response_Data::1         6624                      
system.ruby.network.routers3.throttle1.msg_bytes.Response_Control::1          168                      
system.ruby.network.routers3.throttle1.msg_bytes.Response_Control::2     15488288                      
system.ruby.network.routers3.throttle1.msg_bytes.Writeback_Data::0     73807992                      
system.ruby.network.routers3.throttle1.msg_bytes.Writeback_Control::0      7225248                      
system.ruby.network.routers4.throttle0.link_utilization     0.405767                      
system.ruby.network.routers4.throttle0.msg_count.Control::0      1939573                      
system.ruby.network.routers4.throttle0.msg_count.Response_Data::1        71257                      
system.ruby.network.routers4.throttle0.msg_count.Response_Control::2      1937726                      
system.ruby.network.routers4.throttle0.msg_count.Writeback_Data::0      1025111                      
system.ruby.network.routers4.throttle0.msg_count.Writeback_Control::0       903156                      
system.ruby.network.routers4.throttle0.msg_bytes.Control::0     15516584                      
system.ruby.network.routers4.throttle0.msg_bytes.Response_Data::1      5130504                      
system.ruby.network.routers4.throttle0.msg_bytes.Response_Control::2     15501808                      
system.ruby.network.routers4.throttle0.msg_bytes.Writeback_Data::0     73807992                      
system.ruby.network.routers4.throttle0.msg_bytes.Writeback_Control::0      7225248                      
system.ruby.network.routers4.throttle1.link_utilization     0.538908                      
system.ruby.network.routers4.throttle1.msg_count.Control::0        71118                      
system.ruby.network.routers4.throttle1.msg_count.Request_Control::2          197                      
system.ruby.network.routers4.throttle1.msg_count.Response_Data::1      1939378                      
system.ruby.network.routers4.throttle1.msg_count.Response_Control::1      1928311                      
system.ruby.network.routers4.throttle1.msg_bytes.Control::0       568944                      
system.ruby.network.routers4.throttle1.msg_bytes.Request_Control::2         1576                      
system.ruby.network.routers4.throttle1.msg_bytes.Response_Data::1    139635216                      
system.ruby.network.routers4.throttle1.msg_bytes.Response_Control::1     15426488                      
system.ruby.network.routers5.throttle0.link_utilization     0.001970                      
system.ruby.network.routers5.throttle0.msg_count.Control::0        71118                      
system.ruby.network.routers5.throttle0.msg_bytes.Control::0       568944                      
system.ruby.network.routers5.throttle1.link_utilization     0.017731                      
system.ruby.network.routers5.throttle1.msg_count.Response_Data::1        71118                      
system.ruby.network.routers5.throttle1.msg_bytes.Response_Data::1      5120496                      
system.ruby.network.routers6.throttle0.link_utilization            0                      
system.ruby.network.routers6.throttle1.link_utilization            0                      
system.ruby.network.routers6.throttle2.link_utilization     0.000421                      
system.ruby.network.routers6.throttle2.msg_count.Request_Control::2          130                      
system.ruby.network.routers6.throttle2.msg_count.Response_Data::1         1670                      
system.ruby.network.routers6.throttle2.msg_count.Response_Control::1           42                      
system.ruby.network.routers6.throttle2.msg_bytes.Request_Control::2         1040                      
system.ruby.network.routers6.throttle2.msg_bytes.Response_Data::1       120240                      
system.ruby.network.routers6.throttle2.msg_bytes.Response_Control::1          336                      
system.ruby.network.routers6.throttle3.link_utilization     0.536555                      
system.ruby.network.routers6.throttle3.msg_count.Request_Control::2           67                      
system.ruby.network.routers6.throttle3.msg_count.Response_Data::1      1937859                      
system.ruby.network.routers6.throttle3.msg_count.Response_Control::1      1928316                      
system.ruby.network.routers6.throttle3.msg_bytes.Request_Control::2          536                      
system.ruby.network.routers6.throttle3.msg_bytes.Response_Data::1    139525848                      
system.ruby.network.routers6.throttle3.msg_bytes.Response_Control::1     15426528                      
system.ruby.network.routers6.throttle4.link_utilization     0.405767                      
system.ruby.network.routers6.throttle4.msg_count.Control::0      1939573                      
system.ruby.network.routers6.throttle4.msg_count.Response_Data::1        71257                      
system.ruby.network.routers6.throttle4.msg_count.Response_Control::2      1937726                      
system.ruby.network.routers6.throttle4.msg_count.Writeback_Data::0      1025111                      
system.ruby.network.routers6.throttle4.msg_count.Writeback_Control::0       903156                      
system.ruby.network.routers6.throttle4.msg_bytes.Control::0     15516584                      
system.ruby.network.routers6.throttle4.msg_bytes.Response_Data::1      5130504                      
system.ruby.network.routers6.throttle4.msg_bytes.Response_Control::2     15501808                      
system.ruby.network.routers6.throttle4.msg_bytes.Writeback_Data::0     73807992                      
system.ruby.network.routers6.throttle4.msg_bytes.Writeback_Control::0      7225248                      
system.ruby.network.routers6.throttle5.link_utilization     0.001970                      
system.ruby.network.routers6.throttle5.msg_count.Control::0        71118                      
system.ruby.network.routers6.throttle5.msg_bytes.Control::0       568944                      
system.ruby.delayVCHist.vnet_0::bucket_size            2                       # delay histogram for vnet_0
system.ruby.delayVCHist.vnet_0::max_bucket           19                       # delay histogram for vnet_0
system.ruby.delayVCHist.vnet_0::samples       5805566                       # delay histogram for vnet_0
system.ruby.delayVCHist.vnet_0::mean         1.405612                       # delay histogram for vnet_0
system.ruby.delayVCHist.vnet_0::stdev        3.050051                       # delay histogram for vnet_0
system.ruby.delayVCHist.vnet_0           |     4786824     82.45%     82.45% |          79      0.00%     82.45% |           1      0.00%     82.45% |           2      0.00%     82.45% |     1017561     17.53%     99.98% |           6      0.00%     99.98% |           2      0.00%     99.98% |           0      0.00%     99.98% |           4      0.00%     99.98% |        1087      0.02%    100.00% # delay histogram for vnet_0
system.ruby.delayVCHist.vnet_0::total         5805566                       # delay histogram for vnet_0
system.ruby.delayVCHist.vnet_1::bucket_size            1                       # delay histogram for vnet_1
system.ruby.delayVCHist.vnet_1::max_bucket            9                       # delay histogram for vnet_1
system.ruby.delayVCHist.vnet_1::samples       7652813                       # delay histogram for vnet_1
system.ruby.delayVCHist.vnet_1::mean         0.000146                       # delay histogram for vnet_1
system.ruby.delayVCHist.vnet_1::stdev        0.034217                       # delay histogram for vnet_1
system.ruby.delayVCHist.vnet_1           |     7652673    100.00%    100.00% |           0      0.00%    100.00% |           0      0.00%    100.00% |           0      0.00%    100.00% |           0      0.00%    100.00% |           0      0.00%    100.00% |           0      0.00%    100.00% |           0      0.00%    100.00% |         140      0.00%    100.00% |           0      0.00%    100.00% # delay histogram for vnet_1
system.ruby.delayVCHist.vnet_1::total         7652813                       # delay histogram for vnet_1
system.ruby.delayVCHist.vnet_2::bucket_size            1                       # delay histogram for vnet_2
system.ruby.delayVCHist.vnet_2::max_bucket            9                       # delay histogram for vnet_2
system.ruby.delayVCHist.vnet_2::samples         23517                       # delay histogram for vnet_2
system.ruby.delayVCHist.vnet_2::mean         0.030404                       # delay histogram for vnet_2
system.ruby.delayVCHist.vnet_2::stdev        0.388715                       # delay histogram for vnet_2
system.ruby.delayVCHist.vnet_2           |       23374     99.39%     99.39% |           0      0.00%     99.39% |           0      0.00%     99.39% |           0      0.00%     99.39% |           0      0.00%     99.39% |         143      0.61%    100.00% |           0      0.00%    100.00% |           0      0.00%    100.00% |           0      0.00%    100.00% |           0      0.00%    100.00% # delay histogram for vnet_2
system.ruby.delayVCHist.vnet_2::total           23517                       # delay histogram for vnet_2
system.ruby.LD.latency_hist::bucket_size          128                      
system.ruby.LD.latency_hist::max_bucket          1279                      
system.ruby.LD.latency_hist::samples        333527862                      
system.ruby.LD.latency_hist::mean            1.140785                      
system.ruby.LD.latency_hist::gmean           1.023436                      
system.ruby.LD.latency_hist::stdev           2.381809                      
system.ruby.LD.latency_hist              |   333523325    100.00%    100.00% |        3545      0.00%    100.00% |          12      0.00%    100.00% |         307      0.00%    100.00% |         399      0.00%    100.00% |         274      0.00%    100.00% |           0      0.00%    100.00% |           0      0.00%    100.00% |           0      0.00%    100.00% |           0      0.00%    100.00%
system.ruby.LD.latency_hist::total          333527862                      
system.ruby.LD.hit_latency_hist::bucket_size          128                      
system.ruby.LD.hit_latency_hist::max_bucket         1279                      
system.ruby.LD.hit_latency_hist::samples    333527862                      
system.ruby.LD.hit_latency_hist::mean        1.140785                      
system.ruby.LD.hit_latency_hist::gmean       1.023436                      
system.ruby.LD.hit_latency_hist::stdev       2.381809                      
system.ruby.LD.hit_latency_hist          |   333523325    100.00%    100.00% |        3545      0.00%    100.00% |          12      0.00%    100.00% |         307      0.00%    100.00% |         399      0.00%    100.00% |         274      0.00%    100.00% |           0      0.00%    100.00% |           0      0.00%    100.00% |           0      0.00%    100.00% |           0      0.00%    100.00%
system.ruby.LD.hit_latency_hist::total      333527862                      
system.ruby.ST.latency_hist::bucket_size          128                      
system.ruby.ST.latency_hist::max_bucket          1279                      
system.ruby.ST.latency_hist::samples        169906455                      
system.ruby.ST.latency_hist::mean            1.061231                      
system.ruby.ST.latency_hist::gmean           1.007769                      
system.ruby.ST.latency_hist::stdev           1.660533                      
system.ruby.ST.latency_hist              |   169904128    100.00%    100.00% |        1410      0.00%    100.00% |         704      0.00%    100.00% |         166      0.00%    100.00% |          44      0.00%    100.00% |           3      0.00%    100.00% |           0      0.00%    100.00% |           0      0.00%    100.00% |           0      0.00%    100.00% |           0      0.00%    100.00%
system.ruby.ST.latency_hist::total          169906455                      
system.ruby.ST.hit_latency_hist::bucket_size          128                      
system.ruby.ST.hit_latency_hist::max_bucket         1279                      
system.ruby.ST.hit_latency_hist::samples    169906455                      
system.ruby.ST.hit_latency_hist::mean        1.061231                      
system.ruby.ST.hit_latency_hist::gmean       1.007769                      
system.ruby.ST.hit_latency_hist::stdev       1.660533                      
system.ruby.ST.hit_latency_hist          |   169904128    100.00%    100.00% |        1410      0.00%    100.00% |         704      0.00%    100.00% |         166      0.00%    100.00% |          44      0.00%    100.00% |           3      0.00%    100.00% |           0      0.00%    100.00% |           0      0.00%    100.00% |           0      0.00%    100.00% |           0      0.00%    100.00%
system.ruby.ST.hit_latency_hist::total      169906455                      
system.ruby.IFETCH.latency_hist::bucket_size          128                      
system.ruby.IFETCH.latency_hist::max_bucket         1279                      
system.ruby.IFETCH.latency_hist::samples   1246887576                      
system.ruby.IFETCH.latency_hist::mean        1.000201                      
system.ruby.IFETCH.latency_hist::gmean       1.000016                      
system.ruby.IFETCH.latency_hist::stdev       0.144228                      
system.ruby.IFETCH.latency_hist          |  1246887295    100.00%    100.00% |         264      0.00%    100.00% |           2      0.00%    100.00% |           1      0.00%    100.00% |           8      0.00%    100.00% |           6      0.00%    100.00% |           0      0.00%    100.00% |           0      0.00%    100.00% |           0      0.00%    100.00% |           0      0.00%    100.00%
system.ruby.IFETCH.latency_hist::total     1246887576                      
system.ruby.IFETCH.hit_latency_hist::bucket_size          128                      
system.ruby.IFETCH.hit_latency_hist::max_bucket         1279                      
system.ruby.IFETCH.hit_latency_hist::samples   1246887576                      
system.ruby.IFETCH.hit_latency_hist::mean     1.000201                      
system.ruby.IFETCH.hit_latency_hist::gmean     1.000016                      
system.ruby.IFETCH.hit_latency_hist::stdev     0.144228                      
system.ruby.IFETCH.hit_latency_hist      |  1246887295    100.00%    100.00% |         264      0.00%    100.00% |           2      0.00%    100.00% |           1      0.00%    100.00% |           8      0.00%    100.00% |           6      0.00%    100.00% |           0      0.00%    100.00% |           0      0.00%    100.00% |           0      0.00%    100.00% |           0      0.00%    100.00%
system.ruby.IFETCH.hit_latency_hist::total   1246887576                      
system.ruby.RMW_Read.latency_hist::bucket_size           16                      
system.ruby.RMW_Read.latency_hist::max_bucket          159                      
system.ruby.RMW_Read.latency_hist::samples          890                      
system.ruby.RMW_Read.latency_hist::mean      3.795506                      
system.ruby.RMW_Read.latency_hist::gmean     1.582613                      
system.ruby.RMW_Read.latency_hist::stdev     7.848164                      
system.ruby.RMW_Read.latency_hist        |         793     89.10%     89.10% |          89     10.00%     99.10% |           7      0.79%     99.89% |           0      0.00%     99.89% |           0      0.00%     99.89% |           0      0.00%     99.89% |           0      0.00%     99.89% |           1      0.11%    100.00% |           0      0.00%    100.00% |           0      0.00%    100.00%
system.ruby.RMW_Read.latency_hist::total          890                      
system.ruby.RMW_Read.hit_latency_hist::bucket_size           16                      
system.ruby.RMW_Read.hit_latency_hist::max_bucket          159                      
system.ruby.RMW_Read.hit_latency_hist::samples          890                      
system.ruby.RMW_Read.hit_latency_hist::mean     3.795506                      
system.ruby.RMW_Read.hit_latency_hist::gmean     1.582613                      
system.ruby.RMW_Read.hit_latency_hist::stdev     7.848164                      
system.ruby.RMW_Read.hit_latency_hist    |         793     89.10%     89.10% |          89     10.00%     99.10% |           7      0.79%     99.89% |           0      0.00%     99.89% |           0      0.00%     99.89% |           0      0.00%     99.89% |           0      0.00%     99.89% |           1      0.11%    100.00% |           0      0.00%    100.00% |           0      0.00%    100.00%
system.ruby.RMW_Read.hit_latency_hist::total          890                      
system.ruby.Locked_RMW_Read.latency_hist::bucket_size           16                      
system.ruby.Locked_RMW_Read.latency_hist::max_bucket          159                      
system.ruby.Locked_RMW_Read.latency_hist::samples     12895107                      
system.ruby.Locked_RMW_Read.latency_hist::mean     1.000170                      
system.ruby.Locked_RMW_Read.latency_hist::gmean     1.000031                      
system.ruby.Locked_RMW_Read.latency_hist::stdev     0.073578                      
system.ruby.Locked_RMW_Read.latency_hist |    12895040    100.00%    100.00% |          61      0.00%    100.00% |           4      0.00%    100.00% |           0      0.00%    100.00% |           0      0.00%    100.00% |           0      0.00%    100.00% |           0      0.00%    100.00% |           1      0.00%    100.00% |           1      0.00%    100.00% |           0      0.00%    100.00%
system.ruby.Locked_RMW_Read.latency_hist::total     12895107                      
system.ruby.Locked_RMW_Read.hit_latency_hist::bucket_size           16                      
system.ruby.Locked_RMW_Read.hit_latency_hist::max_bucket          159                      
system.ruby.Locked_RMW_Read.hit_latency_hist::samples     12895107                      
system.ruby.Locked_RMW_Read.hit_latency_hist::mean     1.000170                      
system.ruby.Locked_RMW_Read.hit_latency_hist::gmean     1.000031                      
system.ruby.Locked_RMW_Read.hit_latency_hist::stdev     0.073578                      
system.ruby.Locked_RMW_Read.hit_latency_hist |    12895040    100.00%    100.00% |          61      0.00%    100.00% |           4      0.00%    100.00% |           0      0.00%    100.00% |           0      0.00%    100.00% |           0      0.00%    100.00% |           0      0.00%    100.00% |           1      0.00%    100.00% |           1      0.00%    100.00% |           0      0.00%    100.00%
system.ruby.Locked_RMW_Read.hit_latency_hist::total     12895107                      
system.ruby.Locked_RMW_Write.latency_hist::bucket_size            1                      
system.ruby.Locked_RMW_Write.latency_hist::max_bucket            9                      
system.ruby.Locked_RMW_Write.latency_hist::samples     12895107                      
system.ruby.Locked_RMW_Write.latency_hist::mean            1                      
system.ruby.Locked_RMW_Write.latency_hist::gmean            1                      
[...]
system.ruby.L0Cache_Controller.L0_Replacement::total      3688918                      
system.ruby.L0Cache_Controller.Data      |         131      4.32%      4.32% |        2903     95.68%    100.00%
system.ruby.L0Cache_Controller.Data::total         3034                      
system.ruby.L0Cache_Controller.Data_Exclusive |        2824      0.08%      0.08% |     3707811     99.92%    100.00%
system.ruby.L0Cache_Controller.Data_Exclusive::total      3710635                      
system.ruby.L0Cache_Controller.NP.Load   |         302      0.01%      0.01% |     3283806     99.99%    100.00%
system.ruby.L0Cache_Controller.NP.Load::total      3284108                      
system.ruby.L0Cache_Controller.NP.Ifetch |        2320     35.76%     35.76% |        4167     64.24%    100.00%
system.ruby.L0Cache_Controller.NP.Ifetch::total         6487                      
system.ruby.L0Cache_Controller.NP.Store  |         312      0.07%      0.07% |      422718     99.93%    100.00%
system.ruby.L0Cache_Controller.NP.Store::total       423030                      
system.ruby.L0Cache_Controller.NP.Inv    |           0      0.00%      0.00% |         350    100.00%    100.00%
system.ruby.L0Cache_Controller.NP.Inv::total          350                      
system.ruby.L0Cache_Controller.S.Load    |   100228756     87.63%     87.63% |    14151308     12.37%    100.00%
system.ruby.L0Cache_Controller.S.Load::total    114380064                      
system.ruby.L0Cache_Controller.S.Ifetch  |        5917      0.01%      0.01% |    77393239     99.99%    100.00%
system.ruby.L0Cache_Controller.S.Ifetch::total     77399156                      
system.ruby.L0Cache_Controller.S.Store   |          21     47.73%     47.73% |          23     52.27%    100.00%
system.ruby.L0Cache_Controller.S.Store::total           44                      
system.ruby.L0Cache_Controller.S.Inv     |           5      0.32%      0.32% |        1547     99.68%    100.00%
system.ruby.L0Cache_Controller.S.Inv::total         1552                      
system.ruby.L0Cache_Controller.S.L0_Replacement |          46      3.39%      3.39% |        1311     96.61%    100.00%
system.ruby.L0Cache_Controller.S.L0_Replacement::total         1357                      
system.ruby.L0Cache_Controller.E.Load    |        8071      0.03%      0.03% |    28015648     99.97%    100.00%
system.ruby.L0Cache_Controller.E.Load::total     28023719                      
system.ruby.L0Cache_Controller.E.Ifetch  |   601603599     51.44%     51.44% |   567878334     48.56%    100.00%
system.ruby.L0Cache_Controller.E.Ifetch::total   1169481933                      
system.ruby.L0Cache_Controller.E.Store   |          55      0.00%      0.00% |     1204386    100.00%    100.00%
system.ruby.L0Cache_Controller.E.Store::total      1204441                      
system.ruby.L0Cache_Controller.E.Inv     |          44      0.44%      0.44% |       10001     99.56%    100.00%
system.ruby.L0Cache_Controller.E.Inv::total        10045                      
system.ruby.L0Cache_Controller.E.L0_Replacement |        1794      0.09%      0.09% |     2070631     99.91%    100.00%
system.ruby.L0Cache_Controller.E.L0_Replacement::total      2072425                      
system.ruby.L0Cache_Controller.M.Load    |   100261780     53.38%     53.38% |    87578191     46.62%    100.00%
system.ruby.L0Cache_Controller.M.Load::total    187839971                      
system.ruby.L0Cache_Controller.M.Store   |   100256716     51.66%     51.66% |    93813328     48.34%    100.00%
system.ruby.L0Cache_Controller.M.Store::total    194070044                      
system.ruby.L0Cache_Controller.M.Inv     |          45      0.40%      0.40% |       11328     99.60%    100.00%
system.ruby.L0Cache_Controller.M.Inv::total        11373                      
system.ruby.L0Cache_Controller.M.L0_Replacement |          65      0.00%      0.00% |     1615071    100.00%    100.00%
system.ruby.L0Cache_Controller.M.L0_Replacement::total      1615136                      
system.ruby.L0Cache_Controller.IS.Data   |         131      4.32%      4.32% |        2903     95.68%    100.00%
system.ruby.L0Cache_Controller.IS.Data::total         3034                      
system.ruby.L0Cache_Controller.IS.Data_Exclusive |        2491      0.08%      0.08% |     3285070     99.92%    100.00%
system.ruby.L0Cache_Controller.IS.Data_Exclusive::total      3287561                      
system.ruby.L0Cache_Controller.IM.Data_Exclusive |         312      0.07%      0.07% |      422718     99.93%    100.00%
system.ruby.L0Cache_Controller.IM.Data_Exclusive::total       423030                      
system.ruby.L0Cache_Controller.SM.Data_Exclusive |          21     47.73%     47.73% |          23     52.27%    100.00%
system.ruby.L0Cache_Controller.SM.Data_Exclusive::total           44                      
system.ruby.L1Cache_Controller.Load      |        2622      0.08%      0.08% |     3287978     99.92%    100.00%
system.ruby.L1Cache_Controller.Load::total      3290600                      
system.ruby.L1Cache_Controller.Store     |         333      0.08%      0.08% |      422743     99.92%    100.00%
system.ruby.L1Cache_Controller.Store::total       423076                      
system.ruby.L1Cache_Controller.WriteBack |        1859      0.05%      0.05% |     3685702     99.95%    100.00%
system.ruby.L1Cache_Controller.WriteBack::total      3687561                      
system.ruby.L1Cache_Controller.L0_DataAck |          45      0.40%      0.40% |       11328     99.60%    100.00%
system.ruby.L1Cache_Controller.L0_DataAck::total        11373                      
system.ruby.L1Cache_Controller.Inv       |          26     55.32%     55.32% |          21     44.68%    100.00%
system.ruby.L1Cache_Controller.Inv::total           47                      
system.ruby.L1Cache_Controller.L0_Invalidate_Own |           0      0.00%      0.00% |       46354    100.00%    100.00%
system.ruby.L1Cache_Controller.L0_Invalidate_Own::total        46354                      
system.ruby.L1Cache_Controller.L0_Invalidate_Else |         188     65.73%     65.73% |          98     34.27%    100.00%
system.ruby.L1Cache_Controller.L0_Invalidate_Else::total          286                      
system.ruby.L1Cache_Controller.L1_Replacement |           0      0.00%      0.00% |     1930170    100.00%    100.00%
system.ruby.L1Cache_Controller.L1_Replacement::total      1930170                      
system.ruby.L1Cache_Controller.Fwd_GETX  |          11    100.00%    100.00% |           0      0.00%    100.00%
system.ruby.L1Cache_Controller.Fwd_GETX::total           11                      
system.ruby.L1Cache_Controller.Fwd_GETS  |          93     66.91%     66.91% |          46     33.09%    100.00%
system.ruby.L1Cache_Controller.Fwd_GETS::total          139                      
system.ruby.L1Cache_Controller.Data      |           0      0.00%      0.00% |           3    100.00%    100.00%
system.ruby.L1Cache_Controller.Data::total            3                      
system.ruby.L1Cache_Controller.Data_Exclusive |        1318      0.09%      0.09% |     1545333     99.91%    100.00%
system.ruby.L1Cache_Controller.Data_Exclusive::total      1546651                      
system.ruby.L1Cache_Controller.DataS_fromL1 |          46     33.09%     33.09% |          93     66.91%    100.00%
system.ruby.L1Cache_Controller.DataS_fromL1::total          139                      
system.ruby.L1Cache_Controller.Data_all_Acks |         306      0.08%      0.08% |      392430     99.92%    100.00%
system.ruby.L1Cache_Controller.Data_all_Acks::total       392736                      
system.ruby.L1Cache_Controller.L0_Ack    |          49      0.41%      0.41% |       11898     99.59%    100.00%
system.ruby.L1Cache_Controller.L0_Ack::total        11947                      
system.ruby.L1Cache_Controller.Ack       |          21     47.73%     47.73% |          23     52.27%    100.00%
system.ruby.L1Cache_Controller.Ack::total           44                      
system.ruby.L1Cache_Controller.Ack_all   |          21     44.68%     44.68% |          26     55.32%    100.00%
system.ruby.L1Cache_Controller.Ack_all::total           47                      
system.ruby.L1Cache_Controller.WB_Ack    |           0      0.00%      0.00% |     1928267    100.00%    100.00%
system.ruby.L1Cache_Controller.WB_Ack::total      1928267                      
system.ruby.L1Cache_Controller.NP.Load   |        1355      0.09%      0.09% |     1547272     99.91%    100.00%
system.ruby.L1Cache_Controller.NP.Load::total      1548627                      
system.ruby.L1Cache_Controller.NP.Store  |         305      0.08%      0.08% |      390587     99.92%    100.00%
system.ruby.L1Cache_Controller.NP.Store::total       390892                      
system.ruby.L1Cache_Controller.NP.Inv    |           0      0.00%      0.00% |           4    100.00%    100.00%
system.ruby.L1Cache_Controller.NP.Inv::total            4                      
system.ruby.L1Cache_Controller.I.Load    |          10    100.00%    100.00% |           0      0.00%    100.00%
system.ruby.L1Cache_Controller.I.Load::total           10                      
system.ruby.L1Cache_Controller.S.Load    |          32      3.22%      3.22% |         961     96.78%    100.00%
system.ruby.L1Cache_Controller.S.Load::total          993                      
system.ruby.L1Cache_Controller.S.Store   |          21     47.73%     47.73% |          23     52.27%    100.00%
system.ruby.L1Cache_Controller.S.Store::total           44                      
system.ruby.L1Cache_Controller.S.L0_Invalidate_Own |           0      0.00%      0.00% |        1892    100.00%    100.00%
system.ruby.L1Cache_Controller.S.L0_Invalidate_Own::total         1892                      
system.ruby.L1Cache_Controller.S.L0_Invalidate_Else |           5     50.00%     50.00% |           5     50.00%    100.00%
system.ruby.L1Cache_Controller.S.L0_Invalidate_Else::total           10                      
system.ruby.L1Cache_Controller.SS.Load   |          52     94.55%     94.55% |           3      5.45%    100.00%
system.ruby.L1Cache_Controller.SS.Load::total           55                      
system.ruby.L1Cache_Controller.SS.Inv    |          26     60.47%     60.47% |          17     39.53%    100.00%
system.ruby.L1Cache_Controller.SS.Inv::total           43                      
system.ruby.L1Cache_Controller.SS.L1_Replacement |           0      0.00%      0.00% |        1903    100.00%    100.00%
system.ruby.L1Cache_Controller.SS.L1_Replacement::total         1903                      
system.ruby.L1Cache_Controller.E.WriteBack |         771      0.05%      0.05% |     1530458     99.95%    100.00%
system.ruby.L1Cache_Controller.E.WriteBack::total      1531229                      
system.ruby.L1Cache_Controller.E.L0_Invalidate_Own |           0      0.00%      0.00% |       14088    100.00%    100.00%
system.ruby.L1Cache_Controller.E.L0_Invalidate_Own::total        14088                      
system.ruby.L1Cache_Controller.E.L0_Invalidate_Else |          34     50.75%     50.75% |          33     49.25%    100.00%
system.ruby.L1Cache_Controller.E.L0_Invalidate_Else::total           67                      
system.ruby.L1Cache_Controller.EE.L1_Replacement |           0      0.00%      0.00% |        6347    100.00%    100.00%
system.ruby.L1Cache_Controller.EE.L1_Replacement::total         6347                      
system.ruby.L1Cache_Controller.EE.Fwd_GETS |          25     50.00%     50.00% |          25     50.00%    100.00%
system.ruby.L1Cache_Controller.EE.Fwd_GETS::total           50                      
system.ruby.L1Cache_Controller.M.WriteBack |        1088      0.05%      0.05% |     2155244     99.95%    100.00%
system.ruby.L1Cache_Controller.M.WriteBack::total      2156332                      
system.ruby.L1Cache_Controller.M.L0_Invalidate_Own |           0      0.00%      0.00% |        7197    100.00%    100.00%
system.ruby.L1Cache_Controller.M.L0_Invalidate_Own::total         7197                      
system.ruby.L1Cache_Controller.M.L0_Invalidate_Else |          55     83.33%     83.33% |          11     16.67%    100.00%
system.ruby.L1Cache_Controller.M.L0_Invalidate_Else::total           66                      
system.ruby.L1Cache_Controller.MM.Load   |        1173      0.07%      0.07% |     1739737     99.93%    100.00%
system.ruby.L1Cache_Controller.MM.Load::total      1740910                      
system.ruby.L1Cache_Controller.MM.Store  |           7      0.02%      0.02% |       32131     99.98%    100.00%
system.ruby.L1Cache_Controller.MM.Store::total        32138                      
system.ruby.L1Cache_Controller.MM.L1_Replacement |           0      0.00%      0.00% |     1921920    100.00%    100.00%
system.ruby.L1Cache_Controller.MM.L1_Replacement::total      1921920                      
system.ruby.L1Cache_Controller.MM.Fwd_GETX |          11    100.00%    100.00% |           0      0.00%    100.00%
system.ruby.L1Cache_Controller.MM.Fwd_GETX::total           11                      
system.ruby.L1Cache_Controller.MM.Fwd_GETS |          68     76.40%     76.40% |          21     23.60%    100.00%
system.ruby.L1Cache_Controller.MM.Fwd_GETS::total           89                      
system.ruby.L1Cache_Controller.IS.Data_Exclusive |        1318      0.09%      0.09% |     1545333     99.91%    100.00%
system.ruby.L1Cache_Controller.IS.Data_Exclusive::total      1546651                      
system.ruby.L1Cache_Controller.IS.DataS_fromL1 |          46     33.09%     33.09% |          93     66.91%    100.00%
system.ruby.L1Cache_Controller.IS.DataS_fromL1::total          139                      
system.ruby.L1Cache_Controller.IS.Data_all_Acks |           1      0.05%      0.05% |        1846     99.95%    100.00%
system.ruby.L1Cache_Controller.IS.Data_all_Acks::total         1847                      
system.ruby.L1Cache_Controller.IM.Data   |           0      0.00%      0.00% |           3    100.00%    100.00%
system.ruby.L1Cache_Controller.IM.Data::total            3                      
system.ruby.L1Cache_Controller.IM.Data_all_Acks |         305      0.08%      0.08% |      390584     99.92%    100.00%
system.ruby.L1Cache_Controller.IM.Data_all_Acks::total       390889                      
system.ruby.L1Cache_Controller.SM.Ack    |          21     47.73%     47.73% |          23     52.27%    100.00%
system.ruby.L1Cache_Controller.SM.Ack::total           44                      
system.ruby.L1Cache_Controller.SM.Ack_all |          21     44.68%     44.68% |          26     55.32%    100.00%
system.ruby.L1Cache_Controller.SM.Ack_all::total           47                      
system.ruby.L1Cache_Controller.M_I.Load  |           0      0.00%      0.00% |           5    100.00%    100.00%
system.ruby.L1Cache_Controller.M_I.Load::total            5                      
system.ruby.L1Cache_Controller.M_I.Store |           0      0.00%      0.00% |           2    100.00%    100.00%
system.ruby.L1Cache_Controller.M_I.Store::total            2                      
system.ruby.L1Cache_Controller.M_I.WB_Ack |           0      0.00%      0.00% |     1928267    100.00%    100.00%
system.ruby.L1Cache_Controller.M_I.WB_Ack::total      1928267                      
system.ruby.L1Cache_Controller.S_IL0.L0_Invalidate_Own |           0      0.00%      0.00% |        1892    100.00%    100.00%
system.ruby.L1Cache_Controller.S_IL0.L0_Invalidate_Own::total         1892                      
system.ruby.L1Cache_Controller.S_IL0.L0_Invalidate_Else |           5     50.00%     50.00% |           5     50.00%    100.00%
system.ruby.L1Cache_Controller.S_IL0.L0_Invalidate_Else::total           10                      
system.ruby.L1Cache_Controller.S_IL0.L0_Ack |           5      0.26%      0.26% |        1897     99.74%    100.00%
system.ruby.L1Cache_Controller.S_IL0.L0_Ack::total         1902                      
system.ruby.L1Cache_Controller.E_IL0.L0_DataAck |           9      0.12%      0.12% |        7749     99.88%    100.00%
system.ruby.L1Cache_Controller.E_IL0.L0_DataAck::total         7758                      
system.ruby.L1Cache_Controller.E_IL0.L0_Invalidate_Own |           0      0.00%      0.00% |       14088    100.00%    100.00%
system.ruby.L1Cache_Controller.E_IL0.L0_Invalidate_Own::total        14088                      
system.ruby.L1Cache_Controller.E_IL0.L0_Invalidate_Else |          34     50.75%     50.75% |          33     49.25%    100.00%
system.ruby.L1Cache_Controller.E_IL0.L0_Invalidate_Else::total           67                      
system.ruby.L1Cache_Controller.E_IL0.L0_Ack |          25      0.39%      0.39% |        6372     99.61%    100.00%
system.ruby.L1Cache_Controller.E_IL0.L0_Ack::total         6397                      
system.ruby.L1Cache_Controller.M_IL0.L0_DataAck |          36      1.00%      1.00% |        3579     99.00%    100.00%
system.ruby.L1Cache_Controller.M_IL0.L0_DataAck::total         3615                      
system.ruby.L1Cache_Controller.M_IL0.L0_Invalidate_Own |           0      0.00%      0.00% |        7197    100.00%    100.00%
system.ruby.L1Cache_Controller.M_IL0.L0_Invalidate_Own::total         7197                      
system.ruby.L1Cache_Controller.M_IL0.L0_Invalidate_Else |          55     83.33%     83.33% |          11     16.67%    100.00%
system.ruby.L1Cache_Controller.M_IL0.L0_Invalidate_Else::total           66                      
system.ruby.L1Cache_Controller.M_IL0.L0_Ack |          19      0.52%      0.52% |        3629     99.48%    100.00%
system.ruby.L1Cache_Controller.M_IL0.L0_Ack::total         3648                      
system.ruby.L2Cache_Controller.L1_GETS        1548637      0.00%      0.00%
system.ruby.L2Cache_Controller.L1_GETX         390892      0.00%      0.00%
system.ruby.L2Cache_Controller.L1_UPGRADE           44      0.00%      0.00%
system.ruby.L2Cache_Controller.L1_PUTX        1928267      0.00%      0.00%
system.ruby.L2Cache_Controller.Mem_Data         71118      0.00%      0.00%
system.ruby.L2Cache_Controller.WB_Data            124      0.00%      0.00%
system.ruby.L2Cache_Controller.WB_Data_clean           15      0.00%      0.00%
system.ruby.L2Cache_Controller.Unblock            139      0.00%      0.00%
system.ruby.L2Cache_Controller.Exclusive_Unblock      1937587      0.00%      0.00%
system.ruby.L2Cache_Controller.NP.L1_GETS        61827      0.00%      0.00%
system.ruby.L2Cache_Controller.NP.L1_GETX         9291      0.00%      0.00%
system.ruby.L2Cache_Controller.SS.L1_GETS         1845      0.00%      0.00%
system.ruby.L2Cache_Controller.SS.L1_GETX            3      0.00%      0.00%
system.ruby.L2Cache_Controller.SS.L1_UPGRADE           44      0.00%      0.00%
system.ruby.L2Cache_Controller.M.L1_GETS      1484825      0.00%      0.00%
system.ruby.L2Cache_Controller.M.L1_GETX       381587      0.00%      0.00%
system.ruby.L2Cache_Controller.MT.L1_GETS          139      0.00%      0.00%
system.ruby.L2Cache_Controller.MT.L1_GETX           11      0.00%      0.00%
system.ruby.L2Cache_Controller.MT.L1_PUTX      1928267      0.00%      0.00%
system.ruby.L2Cache_Controller.ISS.L1_GETS            1      0.00%      0.00%
system.ruby.L2Cache_Controller.ISS.Mem_Data        61826      0.00%      0.00%
system.ruby.L2Cache_Controller.IS.Mem_Data            1      0.00%      0.00%
system.ruby.L2Cache_Controller.IM.Mem_Data         9291      0.00%      0.00%
system.ruby.L2Cache_Controller.SS_MB.Exclusive_Unblock           47      0.00%      0.00%
system.ruby.L2Cache_Controller.MT_MB.Exclusive_Unblock      1937540      0.00%      0.00%
system.ruby.L2Cache_Controller.MT_IIB.WB_Data          124      0.00%      0.00%
system.ruby.L2Cache_Controller.MT_IIB.WB_Data_clean           15      0.00%      0.00%
system.ruby.L2Cache_Controller.MT_SB.Unblock          139      0.00%      0.00%

---------- End Simulation Statistics   ----------
