
---------- Begin Simulation Statistics ----------
sim_seconds                                  0.415934                       # Number of seconds simulated
sim_ticks                                415934241000                       # Number of ticks simulated
final_tick                               415934241000                       # Number of ticks from beginning of simulation (restored from checkpoints and never reset)
sim_freq                                 1000000000000                       # Frequency of simulated ticks
host_inst_rate                                 148425                       # Simulator instruction rate (inst/s)
host_op_rate                                   401463                       # Simulator op (including micro ops) rate (op/s)
host_tick_rate                              253326549                       # Simulator tick rate (ticks/s)
host_mem_usage                                 898360                       # Number of bytes of host memory used
host_seconds                                  1641.89                       # Real time elapsed on the host
sim_insts                                   243697088                       # Number of instructions simulated
sim_ops                                     659157129                       # Number of ops (including micro ops) simulated
system.voltage_domain.voltage                       1                       # Voltage in Volts
system.clk_domain.clock                          1000                       # Clock period in ticks
system.mem_ctrls.bytes_read::ruby.dir_cntrl0     19650112                       # Number of bytes read from this memory
system.mem_ctrls.bytes_read::total           19650112                       # Number of bytes read from this memory
system.mem_ctrls.num_reads::ruby.dir_cntrl0       307033                       # Number of read requests responded to by this memory
system.mem_ctrls.num_reads::total              307033                       # Number of read requests responded to by this memory
system.mem_ctrls.bw_read::ruby.dir_cntrl0     47243314                       # Total read bandwidth from this memory (bytes/s)
system.mem_ctrls.bw_read::total              47243314                       # Total read bandwidth from this memory (bytes/s)
system.mem_ctrls.bw_total::ruby.dir_cntrl0     47243314                       # Total bandwidth to/from this memory (bytes/s)
system.mem_ctrls.bw_total::total             47243314                       # Total bandwidth to/from this memory (bytes/s)
system.mem_ctrls.readReqs                      307033                       # Number of read requests accepted
system.mem_ctrls.writeReqs                          0                       # Number of write requests accepted
system.mem_ctrls.readBursts                    307033                       # Number of DRAM read bursts, including those serviced by the write queue
system.mem_ctrls.writeBursts                        0                       # Number of DRAM write bursts, including those merged in the write queue
system.mem_ctrls.bytesReadDRAM               19650112                       # Total number of bytes read from DRAM
system.mem_ctrls.bytesReadWrQ                       0                       # Total number of bytes read from write queue
system.mem_ctrls.bytesWritten                       0                       # Total number of bytes written to DRAM
system.mem_ctrls.bytesReadSys                19650112                       # Total read bytes from the system interface side
system.mem_ctrls.bytesWrittenSys                    0                       # Total written bytes from the system interface side
system.mem_ctrls.servicedByWrQ                      0                       # Number of DRAM read bursts serviced by the write queue
system.mem_ctrls.mergedWrBursts                     0                       # Number of DRAM write bursts merged with an existing one
system.mem_ctrls.neitherReadNorWriteReqs            0                       # Number of requests that are neither read nor write
system.mem_ctrls.perBankRdBursts::0             19301                       # Per bank write bursts
system.mem_ctrls.perBankRdBursts::1             19343                       # Per bank write bursts
system.mem_ctrls.perBankRdBursts::2             19074                       # Per bank write bursts
system.mem_ctrls.perBankRdBursts::3             18962                       # Per bank write bursts
system.mem_ctrls.perBankRdBursts::4             19176                       # Per bank write bursts
system.mem_ctrls.perBankRdBursts::5             19124                       # Per bank write bursts
system.mem_ctrls.perBankRdBursts::6             19221                       # Per bank write bursts
system.mem_ctrls.perBankRdBursts::7             19209                       # Per bank write bursts
system.mem_ctrls.perBankRdBursts::8             19087                       # Per bank write bursts
system.mem_ctrls.perBankRdBursts::9             19234                       # Per bank write bursts
system.mem_ctrls.perBankRdBursts::10            19306                       # Per bank write bursts
system.mem_ctrls.perBankRdBursts::11            19263                       # Per bank write bursts
system.mem_ctrls.perBankRdBursts::12            19097                       # Per bank write bursts
system.mem_ctrls.perBankRdBursts::13            19156                       # Per bank write bursts
system.mem_ctrls.perBankRdBursts::14            19227                       # Per bank write bursts
system.mem_ctrls.perBankRdBursts::15            19253                       # Per bank write bursts
system.mem_ctrls.perBankWrBursts::0                 0                       # Per bank write bursts
system.mem_ctrls.perBankWrBursts::1                 0                       # Per bank write bursts
system.mem_ctrls.perBankWrBursts::2                 0                       # Per bank write bursts
system.mem_ctrls.perBankWrBursts::3                 0                       # Per bank write bursts
system.mem_ctrls.perBankWrBursts::4                 0                       # Per bank write bursts
system.mem_ctrls.perBankWrBursts::5                 0                       # Per bank write bursts
system.mem_ctrls.perBankWrBursts::6                 0                       # Per bank write bursts
system.mem_ctrls.perBankWrBursts::7                 0                       # Per bank write bursts
system.mem_ctrls.perBankWrBursts::8                 0                       # Per bank write bursts
system.mem_ctrls.perBankWrBursts::9                 0                       # Per bank write bursts
system.mem_ctrls.perBankWrBursts::10                0                       # Per bank write bursts
system.mem_ctrls.perBankWrBursts::11                0                       # Per bank write bursts
system.mem_ctrls.perBankWrBursts::12                0                       # Per bank write bursts
system.mem_ctrls.perBankWrBursts::13                0                       # Per bank write bursts
system.mem_ctrls.perBankWrBursts::14                0                       # Per bank write bursts
system.mem_ctrls.perBankWrBursts::15                0                       # Per bank write bursts
system.mem_ctrls.numRdRetry                         0                       # Number of times read queue was full causing retry
system.mem_ctrls.numWrRetry                         0                       # Number of times write queue was full causing retry
system.mem_ctrls.totGap                  415934160500                       # Total gap between requests
system.mem_ctrls.readPktSize::0                     0                       # Read request sizes (log2)
system.mem_ctrls.readPktSize::1                     0                       # Read request sizes (log2)
system.mem_ctrls.readPktSize::2                     0                       # Read request sizes (log2)
system.mem_ctrls.readPktSize::3                     0                       # Read request sizes (log2)
system.mem_ctrls.readPktSize::4                     0                       # Read request sizes (log2)
system.mem_ctrls.readPktSize::5                     0                       # Read request sizes (log2)
system.mem_ctrls.readPktSize::6                307033                       # Read request sizes (log2)
system.mem_ctrls.writePktSize::0                    0                       # Write request sizes (log2)
system.mem_ctrls.writePktSize::1                    0                       # Write request sizes (log2)
system.mem_ctrls.writePktSize::2                    0                       # Write request sizes (log2)
system.mem_ctrls.writePktSize::3                    0                       # Write request sizes (log2)
system.mem_ctrls.writePktSize::4                    0                       # Write request sizes (log2)
system.mem_ctrls.writePktSize::5                    0                       # Write request sizes (log2)
system.mem_ctrls.writePktSize::6                    0                       # Write request sizes (log2)
system.mem_ctrls.rdQLenPdf::0                  307032                       # What read queue length does an incoming req see
system.mem_ctrls.rdQLenPdf::1                       1                       # What read queue length does an incoming req see
system.mem_ctrls.rdQLenPdf::2                       0                       # What read queue length does an incoming req see
system.mem_ctrls.rdQLenPdf::3                       0                       # What read queue length does an incoming req see
system.mem_ctrls.rdQLenPdf::4                       0                       # What read queue length does an incoming req see
system.mem_ctrls.rdQLenPdf::5                       0                       # What read queue length does an incoming req see
system.mem_ctrls.rdQLenPdf::6                       0                       # What read queue length does an incoming req see
system.mem_ctrls.rdQLenPdf::7                       0                       # What read queue length does an incoming req see
system.mem_ctrls.rdQLenPdf::8                       0                       # What read queue length does an incoming req see
system.mem_ctrls.rdQLenPdf::9                       0                       # What read queue length does an incoming req see
system.mem_ctrls.rdQLenPdf::10                      0                       # What read queue length does an incoming req see
system.mem_ctrls.rdQLenPdf::11                      0                       # What read queue length does an incoming req see
system.mem_ctrls.rdQLenPdf::12                      0                       # What read queue length does an incoming req see
system.mem_ctrls.rdQLenPdf::13                      0                       # What read queue length does an incoming req see
system.mem_ctrls.rdQLenPdf::14                      0                       # What read queue length does an incoming req see
system.mem_ctrls.rdQLenPdf::15                      0                       # What read queue length does an incoming req see
system.mem_ctrls.rdQLenPdf::16                      0                       # What read queue length does an incoming req see
system.mem_ctrls.rdQLenPdf::17                      0                       # What read queue length does an incoming req see
system.mem_ctrls.rdQLenPdf::18                      0                       # What read queue length does an incoming req see
system.mem_ctrls.rdQLenPdf::19                      0                       # What read queue length does an incoming req see
system.mem_ctrls.rdQLenPdf::20                      0                       # What read queue length does an incoming req see
system.mem_ctrls.rdQLenPdf::21                      0                       # What read queue length does an incoming req see
system.mem_ctrls.rdQLenPdf::22                      0                       # What read queue length does an incoming req see
system.mem_ctrls.rdQLenPdf::23                      0                       # What read queue length does an incoming req see
system.mem_ctrls.rdQLenPdf::24                      0                       # What read queue length does an incoming req see
system.mem_ctrls.rdQLenPdf::25                      0                       # What read queue length does an incoming req see
system.mem_ctrls.rdQLenPdf::26                      0                       # What read queue length does an incoming req see
system.mem_ctrls.rdQLenPdf::27                      0                       # What read queue length does an incoming req see
system.mem_ctrls.rdQLenPdf::28                      0                       # What read queue length does an incoming req see
system.mem_ctrls.rdQLenPdf::29                      0                       # What read queue length does an incoming req see
system.mem_ctrls.rdQLenPdf::30                      0                       # What read queue length does an incoming req see
system.mem_ctrls.rdQLenPdf::31                      0                       # What read queue length does an incoming req see
system.mem_ctrls.wrQLenPdf::0                       0                       # What write queue length does an incoming req see
system.mem_ctrls.wrQLenPdf::1                       0                       # What write queue length does an incoming req see
system.mem_ctrls.wrQLenPdf::2                       0                       # What write queue length does an incoming req see
system.mem_ctrls.wrQLenPdf::3                       0                       # What write queue length does an incoming req see
system.mem_ctrls.wrQLenPdf::4                       0                       # What write queue length does an incoming req see
system.mem_ctrls.wrQLenPdf::5                       0                       # What write queue length does an incoming req see
system.mem_ctrls.wrQLenPdf::6                       0                       # What write queue length does an incoming req see
system.mem_ctrls.wrQLenPdf::7                       0                       # What write queue length does an incoming req see
system.mem_ctrls.wrQLenPdf::8                       0                       # What write queue length does an incoming req see
system.mem_ctrls.wrQLenPdf::9                       0                       # What write queue length does an incoming req see
system.mem_ctrls.wrQLenPdf::10                      0                       # What write queue length does an incoming req see
system.mem_ctrls.wrQLenPdf::11                      0                       # What write queue length does an incoming req see
system.mem_ctrls.wrQLenPdf::12                      0                       # What write queue length does an incoming req see
system.mem_ctrls.wrQLenPdf::13                      0                       # What write queue length does an incoming req see
system.mem_ctrls.wrQLenPdf::14                      0                       # What write queue length does an incoming req see
system.mem_ctrls.wrQLenPdf::15                      0                       # What write queue length does an incoming req see
system.mem_ctrls.wrQLenPdf::16                      0                       # What write queue length does an incoming req see
system.mem_ctrls.wrQLenPdf::17                      0                       # What write queue length does an incoming req see
system.mem_ctrls.wrQLenPdf::18                      0                       # What write queue length does an incoming req see
system.mem_ctrls.wrQLenPdf::19                      0                       # What write queue length does an incoming req see
system.mem_ctrls.wrQLenPdf::20                      0                       # What write queue length does an incoming req see
system.mem_ctrls.wrQLenPdf::21                      0                       # What write queue length does an incoming req see
system.mem_ctrls.wrQLenPdf::22                      0                       # What write queue length does an incoming req see
system.mem_ctrls.wrQLenPdf::23                      0                       # What write queue length does an incoming req see
system.mem_ctrls.wrQLenPdf::24                      0                       # What write queue length does an incoming req see
system.mem_ctrls.wrQLenPdf::25                      0                       # What write queue length does an incoming req see
system.mem_ctrls.wrQLenPdf::26                      0                       # What write queue length does an incoming req see
system.mem_ctrls.wrQLenPdf::27                      0                       # What write queue length does an incoming req see
system.mem_ctrls.wrQLenPdf::28                      0                       # What write queue length does an incoming req see
system.mem_ctrls.wrQLenPdf::29                      0                       # What write queue length does an incoming req see
system.mem_ctrls.wrQLenPdf::30                      0                       # What write queue length does an incoming req see
system.mem_ctrls.wrQLenPdf::31                      0                       # What write queue length does an incoming req see
system.mem_ctrls.wrQLenPdf::32                      0                       # What write queue length does an incoming req see
system.mem_ctrls.wrQLenPdf::33                      0                       # What write queue length does an incoming req see
system.mem_ctrls.wrQLenPdf::34                      0                       # What write queue length does an incoming req see
system.mem_ctrls.wrQLenPdf::35                      0                       # What write queue length does an incoming req see
system.mem_ctrls.wrQLenPdf::36                      0                       # What write queue length does an incoming req see
system.mem_ctrls.wrQLenPdf::37                      0                       # What write queue length does an incoming req see
system.mem_ctrls.wrQLenPdf::38                      0                       # What write queue length does an incoming req see
system.mem_ctrls.wrQLenPdf::39                      0                       # What write queue length does an incoming req see
system.mem_ctrls.wrQLenPdf::40                      0                       # What write queue length does an incoming req see
system.mem_ctrls.wrQLenPdf::41                      0                       # What write queue length does an incoming req see
system.mem_ctrls.wrQLenPdf::42                      0                       # What write queue length does an incoming req see
system.mem_ctrls.wrQLenPdf::43                      0                       # What write queue length does an incoming req see
system.mem_ctrls.wrQLenPdf::44                      0                       # What write queue length does an incoming req see
system.mem_ctrls.wrQLenPdf::45                      0                       # What write queue length does an incoming req see
system.mem_ctrls.wrQLenPdf::46                      0                       # What write queue length does an incoming req see
system.mem_ctrls.wrQLenPdf::47                      0                       # What write queue length does an incoming req see
system.mem_ctrls.wrQLenPdf::48                      0                       # What write queue length does an incoming req see
system.mem_ctrls.wrQLenPdf::49                      0                       # What write queue length does an incoming req see
system.mem_ctrls.wrQLenPdf::50                      0                       # What write queue length does an incoming req see
system.mem_ctrls.wrQLenPdf::51                      0                       # What write queue length does an incoming req see
system.mem_ctrls.wrQLenPdf::52                      0                       # What write queue length does an incoming req see
system.mem_ctrls.wrQLenPdf::53                      0                       # What write queue length does an incoming req see
system.mem_ctrls.wrQLenPdf::54                      0                       # What write queue length does an incoming req see
system.mem_ctrls.wrQLenPdf::55                      0                       # What write queue length does an incoming req see
system.mem_ctrls.wrQLenPdf::56                      0                       # What write queue length does an incoming req see
system.mem_ctrls.wrQLenPdf::57                      0                       # What write queue length does an incoming req see
system.mem_ctrls.wrQLenPdf::58                      0                       # What write queue length does an incoming req see
system.mem_ctrls.wrQLenPdf::59                      0                       # What write queue length does an incoming req see
system.mem_ctrls.wrQLenPdf::60                      0                       # What write queue length does an incoming req see
system.mem_ctrls.wrQLenPdf::61                      0                       # What write queue length does an incoming req see
system.mem_ctrls.wrQLenPdf::62                      0                       # What write queue length does an incoming req see
system.mem_ctrls.wrQLenPdf::63                      0                       # What write queue length does an incoming req see
system.mem_ctrls.bytesPerActivate::samples        53041                       # Bytes accessed per row activation
system.mem_ctrls.bytesPerActivate::mean    370.466620                       # Bytes accessed per row activation
system.mem_ctrls.bytesPerActivate::gmean   322.080952                       # Bytes accessed per row activation
system.mem_ctrls.bytesPerActivate::stdev   221.129162                       # Bytes accessed per row activation
system.mem_ctrls.bytesPerActivate::0-127         1149      2.17%      2.17% # Bytes accessed per row activation
system.mem_ctrls.bytesPerActivate::128-255         1933      3.64%      5.81% # Bytes accessed per row activation
system.mem_ctrls.bytesPerActivate::256-383        36061     67.99%     73.80% # Bytes accessed per row activation
system.mem_ctrls.bytesPerActivate::384-511         2660      5.01%     78.81% # Bytes accessed per row activation
system.mem_ctrls.bytesPerActivate::512-639         3081      5.81%     84.62% # Bytes accessed per row activation
system.mem_ctrls.bytesPerActivate::640-767         2733      5.15%     89.77% # Bytes accessed per row activation
system.mem_ctrls.bytesPerActivate::768-895         2051      3.87%     93.64% # Bytes accessed per row activation
system.mem_ctrls.bytesPerActivate::896-1023         1431      2.70%     96.34% # Bytes accessed per row activation
system.mem_ctrls.bytesPerActivate::1024-1151         1942      3.66%    100.00% # Bytes accessed per row activation
system.mem_ctrls.bytesPerActivate::total        53041                       # Bytes accessed per row activation
system.mem_ctrls.totQLat                   2708816749                       # Total ticks spent queuing
system.mem_ctrls.totMemAccLat              8465685499                       # Total ticks spent from burst creation until serviced by the DRAM
system.mem_ctrls.totBusLat                 1535165000                       # Total ticks spent in databus transfers
system.mem_ctrls.avgQLat                      8822.56                       # Average queueing delay per DRAM burst
system.mem_ctrls.avgBusLat                    5000.00                       # Average bus latency per DRAM burst
system.mem_ctrls.avgMemAccLat                27572.56                       # Average memory access latency per DRAM burst
system.mem_ctrls.avgRdBW                        47.24                       # Average DRAM read bandwidth in MiByte/s
system.mem_ctrls.avgWrBW                         0.00                       # Average achieved write bandwidth in MiByte/s
system.mem_ctrls.avgRdBWSys                     47.24                       # Average system read bandwidth in MiByte/s
system.mem_ctrls.avgWrBWSys                      0.00                       # Average system write bandwidth in MiByte/s
system.mem_ctrls.peakBW                      12800.00                       # Theoretical peak bandwidth in MiByte/s
system.mem_ctrls.busUtil                         0.37                       # Data bus utilization in percentage
system.mem_ctrls.busUtilRead                     0.37                       # Data bus utilization in percentage for reads
system.mem_ctrls.busUtilWrite                    0.00                       # Data bus utilization in percentage for writes
system.mem_ctrls.avgRdQLen                       1.00                       # Average read queue length when enqueuing
system.mem_ctrls.avgWrQLen                       0.00                       # Average write queue length when enqueuing
system.mem_ctrls.readRowHits                   253989                       # Number of row buffer hits during reads
system.mem_ctrls.writeRowHits                       0                       # Number of row buffer hits during writes
system.mem_ctrls.readRowHitRate                 82.72                       # Row buffer hit rate for reads
system.mem_ctrls.writeRowHitRate                  nan                       # Row buffer hit rate for writes
system.mem_ctrls.avgGap                    1354688.78                       # Average gap between requests
system.mem_ctrls.pageHitRate                    82.72                       # Row buffer hit rate, read and write combined
system.mem_ctrls_0.actEnergy                200748240                       # Energy for activate commands per rank (pJ)
system.mem_ctrls_0.preEnergy                109535250                       # Energy for precharge commands per rank (pJ)
system.mem_ctrls_0.readEnergy              1196590200                       # Energy for read commands per rank (pJ)
system.mem_ctrls_0.writeEnergy                      0                       # Energy for write commands per rank (pJ)
system.mem_ctrls_0.refreshEnergy          27166766640                       # Energy for refresh commands per rank (pJ)
system.mem_ctrls_0.actBackEnergy         124713972225                       # Energy for active background per rank (pJ)
system.mem_ctrls_0.preBackEnergy         140162148000                       # Energy for precharge background per rank (pJ)
system.mem_ctrls_0.totalEnergy           293549760555                       # Total energy per rank (pJ)
system.mem_ctrls_0.averagePower            705.760521                       # Core power per rank (mW)
system.mem_ctrls_0.memoryStateTime::IDLE 232510455500                       # Time in different power states
system.mem_ctrls_0.memoryStateTime::REF   13888940000                       # Time in different power states
system.mem_ctrls_0.memoryStateTime::PRE_PDN            0                       # Time in different power states
system.mem_ctrls_0.memoryStateTime::ACT  169534666500                       # Time in different power states
system.mem_ctrls_0.memoryStateTime::ACT_PDN            0                       # Time in different power states
system.mem_ctrls_1.actEnergy                200241720                       # Energy for activate commands per rank (pJ)
system.mem_ctrls_1.preEnergy                109258875                       # Energy for precharge commands per rank (pJ)
system.mem_ctrls_1.readEnergy              1198243800                       # Energy for read commands per rank (pJ)
system.mem_ctrls_1.writeEnergy                      0                       # Energy for write commands per rank (pJ)
system.mem_ctrls_1.refreshEnergy          27166766640                       # Energy for refresh commands per rank (pJ)
system.mem_ctrls_1.actBackEnergy         125078291145                       # Energy for active background per rank (pJ)
system.mem_ctrls_1.preBackEnergy         139842570000                       # Energy for precharge background per rank (pJ)
system.mem_ctrls_1.totalEnergy           293595372180                       # Total energy per rank (pJ)
system.mem_ctrls_1.averagePower            705.870182                       # Core power per rank (mW)
system.mem_ctrls_1.memoryStateTime::IDLE 231976634750                       # Time in different power states
system.mem_ctrls_1.memoryStateTime::REF   13888940000                       # Time in different power states
system.mem_ctrls_1.memoryStateTime::PRE_PDN            0                       # Time in different power states
system.mem_ctrls_1.memoryStateTime::ACT  170068387750                       # Time in different power states
system.mem_ctrls_1.memoryStateTime::ACT_PDN            0                       # Time in different power states
system.cpu_voltage_domain.voltage                   1                       # Voltage in Volts
system.cpu_clk_domain.clock                       500                       # Clock period in ticks
system.cpu0.apic_clk_domain.clock                8000                       # Clock period in ticks
system.cpu0.workload.num_syscalls                  69                       # Number of system calls
system.cpu0.numCycles                       831868482                       # number of cpu cycles simulated
system.cpu0.numWorkItemsStarted                     0                       # number of work items this cpu started
system.cpu0.numWorkItemsCompleted                   0                       # number of work items this cpu completed
system.cpu0.committedInsts                  227419471                       # Number of instructions committed
system.cpu0.committedOps                    626785435                       # Number of ops (including micro ops) committed
system.cpu0.num_int_alu_accesses            592557010                       # Number of integer alu accesses
system.cpu0.num_fp_alu_accesses              14535675                       # Number of float alu accesses
system.cpu0.num_func_calls                   20378866                       # number of times a function call or return occured
system.cpu0.num_conditional_control_insts     49817165                       # number of instructions that are conditional controls
system.cpu0.num_int_insts                   592557010                       # number of integer instructions
system.cpu0.num_fp_insts                     14535675                       # number of float instructions
system.cpu0.num_int_register_reads         1252206419                       # number of times the integer registers were read
system.cpu0.num_int_register_writes         584224872                       # number of times the integer registers were written
system.cpu0.num_fp_register_reads            23359524                       # number of times the floating registers were read
system.cpu0.num_fp_register_writes           11424772                       # number of times the floating registers were written
system.cpu0.num_cc_register_reads           501766278                       # number of times the CC registers were read
system.cpu0.num_cc_register_writes          187390415                       # number of times the CC registers were written
system.cpu0.num_mem_refs                    101553486                       # number of memory refs
system.cpu0.num_load_insts                   62291717                       # Number of load instructions
system.cpu0.num_store_insts                  39261769                       # Number of store instructions
system.cpu0.num_idle_cycles                  0.002000                       # Number of idle cycles
system.cpu0.num_busy_cycles              831868481.998000                       # Number of busy cycles
system.cpu0.not_idle_fraction                1.000000                       # Percentage of non-idle cycles
system.cpu0.idle_fraction                    0.000000                       # Percentage of idle cycles
system.cpu0.Branches                         79966415                       # Number of branches fetched
system.cpu0.op_class::No_OpClass             11822239      1.89%      1.89% # Class of executed instruction
system.cpu0.op_class::IntAlu                451101950     71.97%     73.86% # Class of executed instruction
system.cpu0.op_class::IntMult                     318      0.00%     73.86% # Class of executed instruction
system.cpu0.op_class::IntDiv                 50883451      8.12%     81.98% # Class of executed instruction
system.cpu0.op_class::FloatAdd               11423991      1.82%     83.80% # Class of executed instruction
system.cpu0.op_class::FloatCmp                      0      0.00%     83.80% # Class of executed instruction
system.cpu0.op_class::FloatCvt                      0      0.00%     83.80% # Class of executed instruction
system.cpu0.op_class::FloatMult                     0      0.00%     83.80% # Class of executed instruction
system.cpu0.op_class::FloatDiv                      0      0.00%     83.80% # Class of executed instruction
system.cpu0.op_class::FloatSqrt                     0      0.00%     83.80% # Class of executed instruction
system.cpu0.op_class::SimdAdd                       0      0.00%     83.80% # Class of executed instruction
system.cpu0.op_class::SimdAddAcc                    0      0.00%     83.80% # Class of executed instruction
system.cpu0.op_class::SimdAlu                       0      0.00%     83.80% # Class of executed instruction
system.cpu0.op_class::SimdCmp                       0      0.00%     83.80% # Class of executed instruction
system.cpu0.op_class::SimdCvt                       0      0.00%     83.80% # Class of executed instruction
system.cpu0.op_class::SimdMisc                      0      0.00%     83.80% # Class of executed instruction
system.cpu0.op_class::SimdMult                      0      0.00%     83.80% # Class of executed instruction
system.cpu0.op_class::SimdMultAcc                   0      0.00%     83.80% # Class of executed instruction
system.cpu0.op_class::SimdShift                     0      0.00%     83.80% # Class of executed instruction
system.cpu0.op_class::SimdShiftAcc                  0      0.00%     83.80% # Class of executed instruction
system.cpu0.op_class::SimdSqrt                      0      0.00%     83.80% # Class of executed instruction
system.cpu0.op_class::SimdFloatAdd                  0      0.00%     83.80% # Class of executed instruction
system.cpu0.op_class::SimdFloatAlu                  0      0.00%     83.80% # Class of executed instruction
system.cpu0.op_class::SimdFloatCmp                  0      0.00%     83.80% # Class of executed instruction
system.cpu0.op_class::SimdFloatCvt                  0      0.00%     83.80% # Class of executed instruction
system.cpu0.op_class::SimdFloatDiv                  0      0.00%     83.80% # Class of executed instruction
system.cpu0.op_class::SimdFloatMisc                 0      0.00%     83.80% # Class of executed instruction
system.cpu0.op_class::SimdFloatMult                 0      0.00%     83.80% # Class of executed instruction
system.cpu0.op_class::SimdFloatMultAcc              0      0.00%     83.80% # Class of executed instruction
system.cpu0.op_class::SimdFloatSqrt                 0      0.00%     83.80% # Class of executed instruction
system.cpu0.op_class::MemRead                62291717      9.94%     93.74% # Class of executed instruction
system.cpu0.op_class::MemWrite               39261769      6.26%    100.00% # Class of executed instruction
system.cpu0.op_class::IprAccess                     0      0.00%    100.00% # Class of executed instruction
system.cpu0.op_class::InstPrefetch                  0      0.00%    100.00% # Class of executed instruction
system.cpu0.op_class::total                 626785435                       # Class of executed instruction
system.cpu1.apic_clk_domain.clock                8000                       # Clock period in ticks
system.cpu1.numCycles                       831647562                       # number of cpu cycles simulated
system.cpu1.numWorkItemsStarted                     0                       # number of work items this cpu started
system.cpu1.numWorkItemsCompleted                   0                       # number of work items this cpu completed
system.cpu1.committedInsts                   16277617                       # Number of instructions committed
system.cpu1.committedOps                     32371694                       # Number of ops (including micro ops) committed
system.cpu1.num_int_alu_accesses             25372134                       # Number of integer alu accesses
system.cpu1.num_fp_alu_accesses              17579765                       # Number of float alu accesses
system.cpu1.num_func_calls                      40491                       # number of times a function call or return occured
system.cpu1.num_conditional_control_insts      1783388                       # number of instructions that are conditional controls
system.cpu1.num_int_insts                    25372134                       # number of integer instructions
system.cpu1.num_fp_insts                     17579765                       # number of float instructions
system.cpu1.num_int_register_reads           49037187                       # number of times the integer registers were read
system.cpu1.num_int_register_writes          12986621                       # number of times the integer registers were written
system.cpu1.num_fp_register_reads            24437779                       # number of times the floating registers were read
system.cpu1.num_fp_register_writes           14019328                       # number of times the floating registers were written
system.cpu1.num_cc_register_reads            10720594                       # number of times the CC registers were read
system.cpu1.num_cc_register_writes           10714260                       # number of times the CC registers were written
system.cpu1.num_mem_refs                     10684687                       # number of memory refs
system.cpu1.num_load_insts                    7103938                       # Number of load instructions
system.cpu1.num_store_insts                   3580749                       # Number of store instructions
system.cpu1.num_idle_cycles              757709267.070341                       # Number of idle cycles
system.cpu1.num_busy_cycles              73938294.929660                       # Number of busy cycles
system.cpu1.not_idle_fraction                0.088906                       # Percentage of non-idle cycles
system.cpu1.idle_fraction                    0.911094                       # Percentage of idle cycles
system.cpu1.Branches                          1845678                       # Number of branches fetched
system.cpu1.op_class::No_OpClass                    2      0.00%      0.00% # Class of executed instruction
system.cpu1.op_class::IntAlu                 14626761     45.18%     45.18% # Class of executed instruction
system.cpu1.op_class::IntMult                   60671      0.19%     45.37% # Class of executed instruction
system.cpu1.op_class::IntDiv                       14      0.00%     45.37% # Class of executed instruction
system.cpu1.op_class::FloatAdd                6999559     21.62%     66.99% # Class of executed instruction
system.cpu1.op_class::FloatCmp                      0      0.00%     66.99% # Class of executed instruction
system.cpu1.op_class::FloatCvt                      0      0.00%     66.99% # Class of executed instruction
system.cpu1.op_class::FloatMult                     0      0.00%     66.99% # Class of executed instruction
system.cpu1.op_class::FloatDiv                      0      0.00%     66.99% # Class of executed instruction
system.cpu1.op_class::FloatSqrt                     0      0.00%     66.99% # Class of executed instruction
system.cpu1.op_class::SimdAdd                       0      0.00%     66.99% # Class of executed instruction
system.cpu1.op_class::SimdAddAcc                    0      0.00%     66.99% # Class of executed instruction
system.cpu1.op_class::SimdAlu                       0      0.00%     66.99% # Class of executed instruction
system.cpu1.op_class::SimdCmp                       0      0.00%     66.99% # Class of executed instruction
system.cpu1.op_class::SimdCvt                       0      0.00%     66.99% # Class of executed instruction
system.cpu1.op_class::SimdMisc                      0      0.00%     66.99% # Class of executed instruction
system.cpu1.op_class::SimdMult                      0      0.00%     66.99% # Class of executed instruction
system.cpu1.op_class::SimdMultAcc                   0      0.00%     66.99% # Class of executed instruction
system.cpu1.op_class::SimdShift                     0      0.00%     66.99% # Class of executed instruction
system.cpu1.op_class::SimdShiftAcc                  0      0.00%     66.99% # Class of executed instruction
system.cpu1.op_class::SimdSqrt                      0      0.00%     66.99% # Class of executed instruction
system.cpu1.op_class::SimdFloatAdd                  0      0.00%     66.99% # Class of executed instruction
system.cpu1.op_class::SimdFloatAlu                  0      0.00%     66.99% # Class of executed instruction
system.cpu1.op_class::SimdFloatCmp                  0      0.00%     66.99% # Class of executed instruction
system.cpu1.op_class::SimdFloatCvt                  0      0.00%     66.99% # Class of executed instruction
system.cpu1.op_class::SimdFloatDiv                  0      0.00%     66.99% # Class of executed instruction
system.cpu1.op_class::SimdFloatMisc                 0      0.00%     66.99% # Class of executed instruction
system.cpu1.op_class::SimdFloatMult                 0      0.00%     66.99% # Class of executed instruction
system.cpu1.op_class::SimdFloatMultAcc              0      0.00%     66.99% # Class of executed instruction
system.cpu1.op_class::SimdFloatSqrt                 0      0.00%     66.99% # Class of executed instruction
system.cpu1.op_class::MemRead                 7103938     21.94%     88.94% # Class of executed instruction
system.cpu1.op_class::MemWrite                3580749     11.06%    100.00% # Class of executed instruction
system.cpu1.op_class::IprAccess                     0      0.00%    100.00% # Class of executed instruction
system.cpu1.op_class::InstPrefetch                  0      0.00%    100.00% # Class of executed instruction
system.cpu1.op_class::total                  32371694                       # Class of executed instruction
system.ruby.clk_domain.clock                      500                       # Clock period in ticks
system.ruby.delayHist::bucket_size                  2                       # delay histogram for all message
system.ruby.delayHist::max_bucket                  19                       # delay histogram for all message
system.ruby.delayHist::samples                4340049                       # delay histogram for all message
system.ruby.delayHist::mean                  0.972196                       # delay histogram for all message
system.ruby.delayHist::stdev                 2.613411                       # delay histogram for all message
system.ruby.delayHist                    |     3812323     87.84%     87.84% |          60      0.00%     87.84% |         697      0.02%     87.86% |           0      0.00%     87.86% |      526965     12.14%    100.00% |           1      0.00%    100.00% |           0      0.00%    100.00% |           2      0.00%    100.00% |           0      0.00%    100.00% |           1      0.00%    100.00% # delay histogram for all message
system.ruby.delayHist::total                  4340049                       # delay histogram for all message
system.ruby.outstanding_req_hist::bucket_size            1                      
system.ruby.outstanding_req_hist::max_bucket            9                      
system.ruby.outstanding_req_hist::samples    428010456                      
system.ruby.outstanding_req_hist::mean       1.000259                      
system.ruby.outstanding_req_hist::gmean      1.000179                      
system.ruby.outstanding_req_hist::stdev      0.016077                      
system.ruby.outstanding_req_hist         |           0      0.00%      0.00% |   427899802     99.97%     99.97% |      110654      0.03%    100.00% |           0      0.00%    100.00% |           0      0.00%    100.00% |           0      0.00%    100.00% |           0      0.00%    100.00% |           0      0.00%    100.00% |           0      0.00%    100.00% |           0      0.00%    100.00%
system.ruby.outstanding_req_hist::total     428010456                      
system.ruby.latency_hist::bucket_size             128                      
system.ruby.latency_hist::max_bucket             1279                      
system.ruby.latency_hist::samples           428010456                      
system.ruby.latency_hist::mean               1.116710                      
system.ruby.latency_hist::gmean              1.006402                      
system.ruby.latency_hist::stdev              4.221466                      
system.ruby.latency_hist                 |   427957411     99.99%     99.99% |       43230      0.01%    100.00% |        1244      0.00%    100.00% |        1104      0.00%    100.00% |        6836      0.00%    100.00% |         631      0.00%    100.00% |           0      0.00%    100.00% |           0      0.00%    100.00% |           0      0.00%    100.00% |           0      0.00%    100.00%
system.ruby.latency_hist::total             428010456                      
system.ruby.hit_latency_hist::bucket_size          128                      
system.ruby.hit_latency_hist::max_bucket         1279                      
system.ruby.hit_latency_hist::samples       428010456                      
system.ruby.hit_latency_hist::mean           1.116710                      
system.ruby.hit_latency_hist::gmean          1.006402                      
system.ruby.hit_latency_hist::stdev          4.221466                      
system.ruby.hit_latency_hist             |   427957411     99.99%     99.99% |       43230      0.01%    100.00% |        1244      0.00%    100.00% |        1104      0.00%    100.00% |        6836      0.00%    100.00% |         631      0.00%    100.00% |           0      0.00%    100.00% |           0      0.00%    100.00% |           0      0.00%    100.00% |           0      0.00%    100.00%
system.ruby.hit_latency_hist::total         428010456                      
system.ruby.l0_cntrl0.Dcache.demand_hits    101266633                       # Number of cache demand hits
system.ruby.l0_cntrl0.Dcache.demand_misses       286915                       # Number of cache demand misses
system.ruby.l0_cntrl0.Dcache.demand_accesses    101553548                       # Number of cache demand accesses
system.ruby.l0_cntrl0.Icache.demand_hits    294807042                       # Number of cache demand hits
system.ruby.l0_cntrl0.Icache.demand_misses         1810                       # Number of cache demand misses
system.ruby.l0_cntrl0.Icache.demand_accesses    294808852                       # Number of cache demand accesses
system.ruby.l0_cntrl0.Zcache.demand_hits            0                       # Number of cache demand hits
system.ruby.l0_cntrl0.Zcache.demand_misses            0                       # Number of cache demand misses
system.ruby.l0_cntrl0.Zcache.demand_accesses            0                       # Number of cache demand accesses
system.ruby.l0_cntrl1.Dcache.demand_hits     10349933                       # Number of cache demand hits
system.ruby.l0_cntrl1.Dcache.demand_misses       445346                       # Number of cache demand misses
system.ruby.l0_cntrl1.Dcache.demand_accesses     10795279                       # Number of cache demand accesses
system.ruby.l0_cntrl1.Icache.demand_hits     20852425                       # Number of cache demand hits
system.ruby.l0_cntrl1.Icache.demand_misses          352                       # Number of cache demand misses
system.ruby.l0_cntrl1.Icache.demand_accesses     20852777                       # Number of cache demand accesses
system.ruby.l0_cntrl1.Zcache.demand_hits            0                       # Number of cache demand hits
system.ruby.l0_cntrl1.Zcache.demand_misses            0                       # Number of cache demand misses
system.ruby.l0_cntrl1.Zcache.demand_accesses            0                       # Number of cache demand accesses
system.ruby.l1_cntrl0.cache.demand_hits            56                       # Number of cache demand hits
system.ruby.l1_cntrl0.cache.demand_misses       288669                       # Number of cache demand misses
system.ruby.l1_cntrl0.cache.demand_accesses       288725                       # Number of cache demand accesses
system.ruby.l1_cntrl1.cache.demand_hits         72197                       # Number of cache demand hits
system.ruby.l1_cntrl1.cache.demand_misses       373501                       # Number of cache demand misses
system.ruby.l1_cntrl1.cache.demand_accesses       445698                       # Number of cache demand accesses
system.ruby.l2_cntrl0.L2cache.demand_hits       347338                       # Number of cache demand hits
system.ruby.l2_cntrl0.L2cache.demand_misses       314832                       # Number of cache demand misses
system.ruby.l2_cntrl0.L2cache.demand_accesses       662170                       # Number of cache demand accesses
system.ruby.memctrl_clk_domain.clock             1500                       # Clock period in ticks
system.ruby.network.routers0.percent_links_utilized            0                      
system.ruby.network.routers1.percent_links_utilized            0                      
system.ruby.network.routers2.percent_links_utilized     0.183903                      
system.ruby.network.routers2.msg_count.Control::0       288669                      
system.ruby.network.routers2.msg_count.Request_Control::2         7792                      
system.ruby.network.routers2.msg_count.Response_Data::1       304232                      
system.ruby.network.routers2.msg_count.Response_Control::1       279806                      
system.ruby.network.routers2.msg_count.Response_Control::2       288668                      
system.ruby.network.routers2.msg_count.Writeback_Data::0       279567                      
system.ruby.network.routers2.msg_count.Writeback_Control::0          209                      
system.ruby.network.routers2.msg_bytes.Control::0      2309352                      
system.ruby.network.routers2.msg_bytes.Request_Control::2        62336                      
system.ruby.network.routers2.msg_bytes.Response_Data::1     21904704                      
system.ruby.network.routers2.msg_bytes.Response_Control::1      2238448                      
system.ruby.network.routers2.msg_bytes.Response_Control::2      2309344                      
system.ruby.network.routers2.msg_bytes.Writeback_Data::0     20128824                      
system.ruby.network.routers2.msg_bytes.Writeback_Control::0         1672                      
system.ruby.network.routers3.percent_links_utilized     0.203031                      
system.ruby.network.routers3.msg_count.Control::0       373501                      
system.ruby.network.routers3.msg_count.Request_Control::2           23                      
system.ruby.network.routers3.msg_count.Response_Data::1       373518                      
system.ruby.network.routers3.msg_count.Response_Control::1       365177                      
system.ruby.network.routers3.msg_count.Response_Control::2       373478                      
system.ruby.network.routers3.msg_count.Writeback_Data::0       239601                      
system.ruby.network.routers3.msg_count.Writeback_Control::0       125556                      
system.ruby.network.routers3.msg_bytes.Control::0      2988008                      
system.ruby.network.routers3.msg_bytes.Request_Control::2          184                      
system.ruby.network.routers3.msg_bytes.Response_Data::1     26893296                      
system.ruby.network.routers3.msg_bytes.Response_Control::1      2921416                      
system.ruby.network.routers3.msg_bytes.Response_Control::2      2987824                      
system.ruby.network.routers3.msg_bytes.Writeback_Data::0     17251272                      
system.ruby.network.routers3.msg_bytes.Writeback_Control::0      1004448                      
system.ruby.network.routers4.percent_links_utilized     0.474987                      
system.ruby.network.routers4.msg_count.Control::0       969203                      
system.ruby.network.routers4.msg_count.Request_Control::2         7815                      
system.ruby.network.routers4.msg_count.Response_Data::1       969186                      
system.ruby.network.routers4.msg_count.Response_Control::1       644949                      
system.ruby.network.routers4.msg_count.Response_Control::2       662146                      
system.ruby.network.routers4.msg_count.Writeback_Data::0       519168                      
system.ruby.network.routers4.msg_count.Writeback_Control::0       125765                      
system.ruby.network.routers4.msg_bytes.Control::0      7753624                      
system.ruby.network.routers4.msg_bytes.Request_Control::2        62520                      
system.ruby.network.routers4.msg_bytes.Response_Data::1     69781392                      
system.ruby.network.routers4.msg_bytes.Response_Control::1      5159592                      
system.ruby.network.routers4.msg_bytes.Response_Control::2      5297168                      
system.ruby.network.routers4.msg_bytes.Writeback_Data::0     37380096                      
system.ruby.network.routers4.msg_bytes.Writeback_Control::0      1006120                      
system.ruby.network.routers5.percent_links_utilized     0.092272                      
system.ruby.network.routers5.msg_count.Control::0       307033                      
system.ruby.network.routers5.msg_count.Response_Data::1       307033                      
system.ruby.network.routers5.msg_bytes.Control::0      2456264                      
system.ruby.network.routers5.msg_bytes.Response_Data::1     22106376                      
system.ruby.network.routers6.percent_links_utilized     0.159032                      
system.ruby.network.routers6.msg_count.Control::0       969203                      
system.ruby.network.routers6.msg_count.Request_Control::2         7815                      
system.ruby.network.routers6.msg_count.Response_Data::1       976985                      
system.ruby.network.routers6.msg_count.Response_Control::1       644966                      
system.ruby.network.routers6.msg_count.Response_Control::2       662146                      
system.ruby.network.routers6.msg_count.Writeback_Data::0       519168                      
system.ruby.network.routers6.msg_count.Writeback_Control::0       125765                      
system.ruby.network.routers6.msg_bytes.Control::0      7753624                      
system.ruby.network.routers6.msg_bytes.Request_Control::2        62520                      
system.ruby.network.routers6.msg_bytes.Response_Data::1     70342920                      
system.ruby.network.routers6.msg_bytes.Response_Control::1      5159728                      
system.ruby.network.routers6.msg_bytes.Response_Control::2      5297168                      
system.ruby.network.routers6.msg_bytes.Writeback_Data::0     37380096                      
system.ruby.network.routers6.msg_bytes.Writeback_Control::0      1006120                      
system.ruby.network.msg_count.Control         2907609                      
system.ruby.network.msg_count.Request_Control        23445                      
system.ruby.network.msg_count.Response_Data      2930954                      
system.ruby.network.msg_count.Response_Control      3921336                      
system.ruby.network.msg_count.Writeback_Data      1557504                      
system.ruby.network.msg_count.Writeback_Control       377295                      
system.ruby.network.msg_byte.Control         23260872                      
system.ruby.network.msg_byte.Request_Control       187560                      
system.ruby.network.msg_byte.Response_Data    211028688                      
system.ruby.network.msg_byte.Response_Control     31370688                      
system.ruby.network.msg_byte.Writeback_Data    112140288                      
system.ruby.network.msg_byte.Writeback_Control      3018360                      
system.ruby.network.routers0.throttle0.link_utilization            0                      
system.ruby.network.routers0.throttle1.link_utilization            0                      
system.ruby.network.routers1.throttle0.link_utilization            0                      
system.ruby.network.routers1.throttle1.link_utilization            0                      
system.ruby.network.routers2.throttle0.link_utilization     0.173435                      
system.ruby.network.routers2.throttle0.msg_count.Request_Control::2         7792                      
system.ruby.network.routers2.throttle0.msg_count.Response_Data::1       288656                      
system.ruby.network.routers2.throttle0.msg_count.Response_Control::1       279802                      
system.ruby.network.routers2.throttle0.msg_bytes.Request_Control::2        62336                      
system.ruby.network.routers2.throttle0.msg_bytes.Response_Data::1     20783232                      
system.ruby.network.routers2.throttle0.msg_bytes.Response_Control::1      2238416                      
system.ruby.network.routers2.throttle1.link_utilization     0.194372                      
system.ruby.network.routers2.throttle1.msg_count.Control::0       288669                      
system.ruby.network.routers2.throttle1.msg_count.Response_Data::1        15576                      
system.ruby.network.routers2.throttle1.msg_count.Response_Control::1            4                      
system.ruby.network.routers2.throttle1.msg_count.Response_Control::2       288668                      
system.ruby.network.routers2.throttle1.msg_count.Writeback_Data::0       279567                      
system.ruby.network.routers2.throttle1.msg_count.Writeback_Control::0          209                      
system.ruby.network.routers2.throttle1.msg_bytes.Control::0      2309352                      
system.ruby.network.routers2.throttle1.msg_bytes.Response_Data::1      1121472                      
system.ruby.network.routers2.throttle1.msg_bytes.Response_Control::1           32                      
system.ruby.network.routers2.throttle1.msg_bytes.Response_Control::2      2309344                      
system.ruby.network.routers2.throttle1.msg_bytes.Writeback_Data::0     20128824                      
system.ruby.network.routers2.throttle1.msg_bytes.Writeback_Control::0         1672                      
system.ruby.network.routers3.throttle0.link_utilization     0.223994                      
system.ruby.network.routers3.throttle0.msg_count.Request_Control::2           23                      
system.ruby.network.routers3.throttle0.msg_count.Response_Data::1       373498                      
system.ruby.network.routers3.throttle0.msg_count.Response_Control::1       365164                      
system.ruby.network.routers3.throttle0.msg_bytes.Request_Control::2          184                      
system.ruby.network.routers3.throttle0.msg_bytes.Response_Data::1     26891856                      
system.ruby.network.routers3.throttle0.msg_bytes.Response_Control::1      2921312                      
system.ruby.network.routers3.throttle1.link_utilization     0.182068                      
system.ruby.network.routers3.throttle1.msg_count.Control::0       373501                      
system.ruby.network.routers3.throttle1.msg_count.Response_Data::1           20                      
system.ruby.network.routers3.throttle1.msg_count.Response_Control::1           13                      
system.ruby.network.routers3.throttle1.msg_count.Response_Control::2       373478                      
system.ruby.network.routers3.throttle1.msg_count.Writeback_Data::0       239601                      
system.ruby.network.routers3.throttle1.msg_count.Writeback_Control::0       125556                      
system.ruby.network.routers3.throttle1.msg_bytes.Control::0      2988008                      
system.ruby.network.routers3.throttle1.msg_bytes.Response_Data::1         1440                      
system.ruby.network.routers3.throttle1.msg_bytes.Response_Control::1          104                      
system.ruby.network.routers3.throttle1.msg_bytes.Response_Control::2      2987824                      
system.ruby.network.routers3.throttle1.msg_bytes.Writeback_Data::0     17251272                      
system.ruby.network.routers3.throttle1.msg_bytes.Writeback_Control::0      1004448                      
system.ruby.network.routers4.throttle0.link_utilization     0.538311                      
system.ruby.network.routers4.throttle0.msg_count.Control::0       662170                      
system.ruby.network.routers4.throttle0.msg_count.Response_Data::1       314831                      
system.ruby.network.routers4.throttle0.msg_count.Response_Control::2       662146                      
system.ruby.network.routers4.throttle0.msg_count.Writeback_Data::0       519168                      
system.ruby.network.routers4.throttle0.msg_count.Writeback_Control::0       125765                      
system.ruby.network.routers4.throttle0.msg_bytes.Control::0      5297360                      
system.ruby.network.routers4.throttle0.msg_bytes.Response_Data::1     22667832                      
system.ruby.network.routers4.throttle0.msg_bytes.Response_Control::2      5297168                      
system.ruby.network.routers4.throttle0.msg_bytes.Writeback_Data::0     37380096                      
system.ruby.network.routers4.throttle0.msg_bytes.Writeback_Control::0      1006120                      
system.ruby.network.routers4.throttle1.link_utilization     0.411663                      
system.ruby.network.routers4.throttle1.msg_count.Control::0       307033                      
system.ruby.network.routers4.throttle1.msg_count.Request_Control::2         7815                      
system.ruby.network.routers4.throttle1.msg_count.Response_Data::1       654355                      
system.ruby.network.routers4.throttle1.msg_count.Response_Control::1       644949                      
system.ruby.network.routers4.throttle1.msg_bytes.Control::0      2456264                      
system.ruby.network.routers4.throttle1.msg_bytes.Request_Control::2        62520                      
system.ruby.network.routers4.throttle1.msg_bytes.Response_Data::1     47113560                      
system.ruby.network.routers4.throttle1.msg_bytes.Response_Control::1      5159592                      
system.ruby.network.routers5.throttle0.link_utilization     0.018454                      
system.ruby.network.routers5.throttle0.msg_count.Control::0       307033                      
system.ruby.network.routers5.throttle0.msg_bytes.Control::0      2456264                      
system.ruby.network.routers5.throttle1.link_utilization     0.166090                      
system.ruby.network.routers5.throttle1.msg_count.Response_Data::1       307033                      
system.ruby.network.routers5.throttle1.msg_bytes.Response_Data::1     22106376                      
system.ruby.network.routers6.throttle0.link_utilization            0                      
system.ruby.network.routers6.throttle1.link_utilization            0                      
system.ruby.network.routers6.throttle2.link_utilization     0.173435                      
system.ruby.network.routers6.throttle2.msg_count.Request_Control::2         7792                      
system.ruby.network.routers6.throttle2.msg_count.Response_Data::1       288656                      
system.ruby.network.routers6.throttle2.msg_count.Response_Control::1       279802                      
system.ruby.network.routers6.throttle2.msg_bytes.Request_Control::2        62336                      
system.ruby.network.routers6.throttle2.msg_bytes.Response_Data::1     20783232                      
system.ruby.network.routers6.throttle2.msg_bytes.Response_Control::1      2238416                      
system.ruby.network.routers6.throttle3.link_utilization     0.223994                      
system.ruby.network.routers6.throttle3.msg_count.Request_Control::2           23                      
system.ruby.network.routers6.throttle3.msg_count.Response_Data::1       373498                      
system.ruby.network.routers6.throttle3.msg_count.Response_Control::1       365164                      
system.ruby.network.routers6.throttle3.msg_bytes.Request_Control::2          184                      
system.ruby.network.routers6.throttle3.msg_bytes.Response_Data::1     26891856                      
system.ruby.network.routers6.throttle3.msg_bytes.Response_Control::1      2921312                      
system.ruby.network.routers6.throttle4.link_utilization     0.538311                      
system.ruby.network.routers6.throttle4.msg_count.Control::0       662170                      
system.ruby.network.routers6.throttle4.msg_count.Response_Data::1       314831                      
system.ruby.network.routers6.throttle4.msg_count.Response_Control::2       662146                      
system.ruby.network.routers6.throttle4.msg_count.Writeback_Data::0       519168                      
system.ruby.network.routers6.throttle4.msg_count.Writeback_Control::0       125765                      
system.ruby.network.routers6.throttle4.msg_bytes.Control::0      5297360                      
system.ruby.network.routers6.throttle4.msg_bytes.Response_Data::1     22667832                      
system.ruby.network.routers6.throttle4.msg_bytes.Response_Control::2      5297168                      
system.ruby.network.routers6.throttle4.msg_bytes.Writeback_Data::0     37380096                      
system.ruby.network.routers6.throttle4.msg_bytes.Writeback_Control::0      1006120                      
system.ruby.network.routers6.throttle5.link_utilization     0.018454                      
system.ruby.network.routers6.throttle5.msg_count.Control::0       307033                      
system.ruby.network.routers6.throttle5.msg_bytes.Control::0      2456264                      
system.ruby.delayVCHist.vnet_0::bucket_size            2                       # delay histogram for vnet_0
system.ruby.delayVCHist.vnet_0::max_bucket           19                       # delay histogram for vnet_0
system.ruby.delayVCHist.vnet_0::samples       1969249                       # delay histogram for vnet_0
system.ruby.delayVCHist.vnet_0::mean         2.109188                       # delay histogram for vnet_0
system.ruby.delayVCHist.vnet_0::stdev        3.524862                       # delay histogram for vnet_0
system.ruby.delayVCHist.vnet_0           |     1450017     73.63%     73.63% |          60      0.00%     73.64% |           1      0.00%     73.64% |           0      0.00%     73.64% |      519167     26.36%    100.00% |           1      0.00%    100.00% |           0      0.00%    100.00% |           2      0.00%    100.00% |           0      0.00%    100.00% |           1      0.00%    100.00% # delay histogram for vnet_0
system.ruby.delayVCHist.vnet_0::total         1969249                       # delay histogram for vnet_0
system.ruby.delayVCHist.vnet_1::bucket_size            1                       # delay histogram for vnet_1
system.ruby.delayVCHist.vnet_1::max_bucket            9                       # delay histogram for vnet_1
system.ruby.delayVCHist.vnet_1::samples       2356374                       # delay histogram for vnet_1
system.ruby.delayVCHist.vnet_1::mean         0.026475                       # delay histogram for vnet_1
system.ruby.delayVCHist.vnet_1::stdev        0.459452                       # delay histogram for vnet_1
system.ruby.delayVCHist.vnet_1           |     2348576     99.67%     99.67% |           0      0.00%     99.67% |           0      0.00%     99.67% |           0      0.00%     99.67% |           0      0.00%     99.67% |           0      0.00%     99.67% |           0      0.00%     99.67% |           0      0.00%     99.67% |        7798      0.33%    100.00% |           0      0.00%    100.00% # delay histogram for vnet_1
system.ruby.delayVCHist.vnet_1::total         2356374                       # delay histogram for vnet_1
system.ruby.delayVCHist.vnet_2::bucket_size            1                       # delay histogram for vnet_2
system.ruby.delayVCHist.vnet_2::max_bucket            9                       # delay histogram for vnet_2
system.ruby.delayVCHist.vnet_2::samples         14426                       # delay histogram for vnet_2
system.ruby.delayVCHist.vnet_2::mean         0.241231                       # delay histogram for vnet_2
system.ruby.delayVCHist.vnet_2::stdev        1.071468                       # delay histogram for vnet_2
system.ruby.delayVCHist.vnet_2           |       13730     95.18%     95.18% |           0      0.00%     95.18% |           0      0.00%     95.18% |           0      0.00%     95.18% |           0      0.00%     95.18% |         696      4.82%    100.00% |           0      0.00%    100.00% |           0      0.00%    100.00% |           0      0.00%    100.00% |           0      0.00%    100.00% # delay histogram for vnet_2
system.ruby.delayVCHist.vnet_2::total           14426                       # delay histogram for vnet_2
system.ruby.LD.latency_hist::bucket_size          128                      
system.ruby.LD.latency_hist::max_bucket          1279                      
system.ruby.LD.latency_hist::samples         62677789                      
system.ruby.LD.latency_hist::mean            1.172929                      
system.ruby.LD.latency_hist::gmean           1.021471                      
system.ruby.LD.latency_hist::stdev           3.006388                      
system.ruby.LD.latency_hist              |    62676229    100.00%    100.00% |        1215      0.00%    100.00% |          20      0.00%    100.00% |          50      0.00%    100.00% |         196      0.00%    100.00% |          79      0.00%    100.00% |           0      0.00%    100.00% |           0      0.00%    100.00% |           0      0.00%    100.00% |           0      0.00%    100.00%
system.ruby.LD.latency_hist::total           62677789                      
system.ruby.LD.hit_latency_hist::bucket_size          128                      
system.ruby.LD.hit_latency_hist::max_bucket         1279                      
system.ruby.LD.hit_latency_hist::samples     62677789                      
system.ruby.LD.hit_latency_hist::mean        1.172929                      
system.ruby.LD.hit_latency_hist::gmean       1.021471                      
system.ruby.LD.hit_latency_hist::stdev       3.006388                      
system.ruby.LD.hit_latency_hist          |    62676229    100.00%    100.00% |        1215      0.00%    100.00% |          20      0.00%    100.00% |          50      0.00%    100.00% |         196      0.00%    100.00% |          79      0.00%    100.00% |           0      0.00%    100.00% |           0      0.00%    100.00% |           0      0.00%    100.00% |           0      0.00%    100.00%
system.ruby.LD.hit_latency_hist::total       62677789                      
system.ruby.ST.latency_hist::bucket_size          128                      
system.ruby.ST.latency_hist::max_bucket          1279                      
system.ruby.ST.latency_hist::samples         36088106                      
system.ruby.ST.latency_hist::mean            2.079012                      
system.ruby.ST.latency_hist::gmean           1.039290                      
system.ruby.ST.latency_hist::stdev          13.927427                      
system.ruby.ST.latency_hist              |    36036897     99.86%     99.86% |       41750      0.12%     99.97% |        1224      0.00%     99.98% |        1054      0.00%     99.98% |        6634      0.02%    100.00% |         547      0.00%    100.00% |           0      0.00%    100.00% |           0      0.00%    100.00% |           0      0.00%    100.00% |           0      0.00%    100.00%
system.ruby.ST.latency_hist::total           36088106                      
system.ruby.ST.hit_latency_hist::bucket_size          128                      
system.ruby.ST.hit_latency_hist::max_bucket         1279                      
system.ruby.ST.hit_latency_hist::samples     36088106                      
system.ruby.ST.hit_latency_hist::mean        2.079012                      
system.ruby.ST.hit_latency_hist::gmean       1.039290                      
system.ruby.ST.hit_latency_hist::stdev      13.927427                      
system.ruby.ST.hit_latency_hist          |    36036897     99.86%     99.86% |       41750      0.12%     99.97% |        1224      0.00%     99.98% |        1054      0.00%     99.98% |        6634      0.02%    100.00% |         547      0.00%    100.00% |           0      0.00%    100.00% |           0      0.00%    100.00% |           0      0.00%    100.00% |           0      0.00%    100.00%
system.ruby.ST.hit_latency_hist::total       36088106                      
system.ruby.IFETCH.latency_hist::bucket_size          128                      
system.ruby.IFETCH.latency_hist::max_bucket         1279                      
system.ruby.IFETCH.latency_hist::samples    315661629                      
system.ruby.IFETCH.latency_hist::mean        1.000550                      
system.ruby.IFETCH.latency_hist::gmean       1.000028                      
system.ruby.IFETCH.latency_hist::stdev       0.268312                      
system.ruby.IFETCH.latency_hist          |   315661354    100.00%    100.00% |         264      0.00%    100.00% |           0      0.00%    100.00% |           0      0.00%    100.00% |           6      0.00%    100.00% |           5      0.00%    100.00% |           0      0.00%    100.00% |           0      0.00%    100.00% |           0      0.00%    100.00% |           0      0.00%    100.00%
system.ruby.IFETCH.latency_hist::total      315661629                      
system.ruby.IFETCH.hit_latency_hist::bucket_size          128                      
system.ruby.IFETCH.hit_latency_hist::max_bucket         1279                      
system.ruby.IFETCH.hit_latency_hist::samples    315661629                      
system.ruby.IFETCH.hit_latency_hist::mean     1.000550                      
system.ruby.IFETCH.hit_latency_hist::gmean     1.000028                      
system.ruby.IFETCH.hit_latency_hist::stdev     0.268312                      
system.ruby.IFETCH.hit_latency_hist      |   315661354    100.00%    100.00% |         264      0.00%    100.00% |           0      0.00%    100.00% |           0      0.00%    100.00% |           6      0.00%    100.00% |           5      0.00%    100.00% |           0      0.00%    100.00% |           0      0.00%    100.00% |           0      0.00%    100.00% |           0      0.00%    100.00%
system.ruby.IFETCH.hit_latency_hist::total    315661629                      
system.ruby.RMW_Read.latency_hist::bucket_size            4                      
system.ruby.RMW_Read.latency_hist::max_bucket           39                      
system.ruby.RMW_Read.latency_hist::samples          370                      
system.ruby.RMW_Read.latency_hist::mean      1.632432                      
system.ruby.RMW_Read.latency_hist::gmean     1.083157                      
system.ruby.RMW_Read.latency_hist::stdev     4.061856                      
system.ruby.RMW_Read.latency_hist        |         361     97.57%     97.57% |           0      0.00%     97.57% |           0      0.00%     97.57% |           0      0.00%     97.57% |           0      0.00%     97.57% |           2      0.54%     98.11% |           2      0.54%     98.65% |           3      0.81%     99.46% |           2      0.54%    100.00% |           0      0.00%    100.00%
system.ruby.RMW_Read.latency_hist::total          370                      
system.ruby.RMW_Read.hit_latency_hist::bucket_size            4                      
system.ruby.RMW_Read.hit_latency_hist::max_bucket           39                      
system.ruby.RMW_Read.hit_latency_hist::samples          370                      
system.ruby.RMW_Read.hit_latency_hist::mean     1.632432                      
system.ruby.RMW_Read.hit_latency_hist::gmean     1.083157                      
system.ruby.RMW_Read.hit_latency_hist::stdev     4.061856                      
system.ruby.RMW_Read.hit_latency_hist    |         361     97.57%     97.57% |           0      0.00%     97.57% |           0      0.00%     97.57% |           0      0.00%     97.57% |           0      0.00%     97.57% |           2      0.54%     98.11% |           2      0.54%     98.65% |           3      0.81%     99.46% |           2      0.54%    100.00% |           0      0.00%    100.00%
system.ruby.RMW_Read.hit_latency_hist::total          370                      
system.ruby.Locked_RMW_Read.latency_hist::bucket_size           16                      
system.ruby.Locked_RMW_Read.latency_hist::max_bucket          159                      
system.ruby.Locked_RMW_Read.latency_hist::samples      6791281                      
system.ruby.Locked_RMW_Read.latency_hist::mean     1.000175                      
system.ruby.Locked_RMW_Read.latency_hist::gmean     1.000020                      
system.ruby.Locked_RMW_Read.latency_hist::stdev     0.089996                      
system.ruby.Locked_RMW_Read.latency_hist |     6791240    100.00%    100.00% |          39      0.00%    100.00% |           0      0.00%    100.00% |           0      0.00%    100.00% |           0      0.00%    100.00% |           0      0.00%    100.00% |           0      0.00%    100.00% |           1      0.00%    100.00% |           1      0.00%    100.00% |           0      0.00%    100.00%
system.ruby.Locked_RMW_Read.latency_hist::total      6791281                      
system.ruby.Locked_RMW_Read.hit_latency_hist::bucket_size           16                      
system.ruby.Locked_RMW_Read.hit_latency_hist::max_bucket          159                      
system.ruby.Locked_RMW_Read.hit_latency_hist::samples      6791281                      
system.ruby.Locked_RMW_Read.hit_latency_hist::mean     1.000175                      
system.ruby.Locked_RMW_Read.hit_latency_hist::gmean     1.000020                      
system.ruby.Locked_RMW_Read.hit_latency_hist::stdev     0.089996                      
system.ruby.Locked_RMW_Read.hit_latency_hist |     6791240    100.00%    100.00% |          39      0.00%    100.00% |           0      0.00%    100.00% |           0      0.00%    100.00% |           0      0.00%    100.00% |           0      0.00%    100.00% |           0      0.00%    100.00% |           1      0.00%    100.00% |           1      0.00%    100.00% |           0      0.00%    100.00%
system.ruby.Locked_RMW_Read.hit_latency_hist::total      6791281                      
system.ruby.Locked_RMW_Write.latency_hist::bucket_size            1                      
system.ruby.Locked_RMW_Write.latency_hist::max_bucket            9                      
system.ruby.Locked_RMW_Write.latency_hist::samples      6791281                      
system.ruby.Locked_RMW_Write.latency_hist::mean            1                      
system.ruby.Locked_RMW_Write.latency_hist::gmean            1                      
[...]
system.ruby.Locked_RMW_Write.hit_latency_hist::total      6791281                      
system.ruby.Directory_Controller.Fetch         307033      0.00%      0.00%
system.ruby.Directory_Controller.Memory_Data       307033      0.00%      0.00%
system.ruby.Directory_Controller.I.Fetch       307033      0.00%      0.00%
system.ruby.Directory_Controller.IM.Memory_Data       307033      0.00%      0.00%
system.ruby.L0Cache_Controller.Load      |    55500130     88.55%     88.55% |     7177659     11.45%    100.00%
system.ruby.L0Cache_Controller.Load::total     62677789                      
system.ruby.L0Cache_Controller.Ifetch    |   294808852     93.39%     93.39% |    20852777      6.61%    100.00%
system.ruby.L0Cache_Controller.Ifetch::total    315661629                      
system.ruby.L0Cache_Controller.Store     |    46053418     92.72%     92.72% |     3617620      7.28%    100.00%
system.ruby.L0Cache_Controller.Store::total     49671038                      
system.ruby.L0Cache_Controller.Inv       |        2159     32.66%     32.66% |        4452     67.34%    100.00%
system.ruby.L0Cache_Controller.Inv::total         6611                      
system.ruby.L0Cache_Controller.L0_Replacement |      285464     39.33%     39.33% |      440355     60.67%    100.00%
system.ruby.L0Cache_Controller.L0_Replacement::total       725819                      
system.ruby.L0Cache_Controller.Data      |          21      0.27%      0.27% |        7815     99.73%    100.00%
system.ruby.L0Cache_Controller.Data::total         7836                      
system.ruby.L0Cache_Controller.Data_Exclusive |      288704     39.73%     39.73% |      437883     60.27%    100.00%
system.ruby.L0Cache_Controller.Data_Exclusive::total       726587                      
system.ruby.L0Cache_Controller.NP.Load   |         594      0.13%      0.13% |      445328     99.87%    100.00%
system.ruby.L0Cache_Controller.NP.Load::total       445922                      
system.ruby.L0Cache_Controller.NP.Ifetch |        1810     83.72%     83.72% |         352     16.28%    100.00%
system.ruby.L0Cache_Controller.NP.Ifetch::total         2162                      
system.ruby.L0Cache_Controller.NP.Store  |      286308     99.99%     99.99% |          15      0.01%    100.00%
system.ruby.L0Cache_Controller.NP.Store::total       286323                      
system.ruby.L0Cache_Controller.NP.Inv    |           0      0.00%      0.00% |         139    100.00%    100.00%
system.ruby.L0Cache_Controller.NP.Inv::total          139                      
system.ruby.L0Cache_Controller.S.Load    |     4108886     98.63%     98.63% |       57023      1.37%    100.00%
system.ruby.L0Cache_Controller.S.Load::total      4165909                      
system.ruby.L0Cache_Controller.S.Ifetch  |          25     12.95%     12.95% |         168     87.05%    100.00%
system.ruby.L0Cache_Controller.S.Ifetch::total          193                      
system.ruby.L0Cache_Controller.S.Store   |          13     81.25%     81.25% |           3     18.75%    100.00%
system.ruby.L0Cache_Controller.S.Store::total           16                      
system.ruby.L0Cache_Controller.S.Inv     |           1      5.88%      5.88% |          16     94.12%    100.00%
system.ruby.L0Cache_Controller.S.Inv::total           17                      
system.ruby.L0Cache_Controller.S.L0_Replacement |           1      0.01%      0.01% |        6916     99.99%    100.00%
system.ruby.L0Cache_Controller.S.L0_Replacement::total         6917                      
system.ruby.L0Cache_Controller.E.Load    |     6562160     64.07%     64.07% |     3680239     35.93%    100.00%
system.ruby.L0Cache_Controller.E.Load::total     10242399                      
system.ruby.L0Cache_Controller.E.Ifetch  |   294807017     93.39%     93.39% |    20852257      6.61%    100.00%
system.ruby.L0Cache_Controller.E.Ifetch::total    315659274                      
system.ruby.L0Cache_Controller.E.Store   |         217      0.07%      0.07% |      309496     99.93%    100.00%
system.ruby.L0Cache_Controller.E.Store::total       309713                      
system.ruby.L0Cache_Controller.E.Inv     |        1275     36.24%     36.24% |        2243     63.76%    100.00%
system.ruby.L0Cache_Controller.E.Inv::total         3518                      
system.ruby.L0Cache_Controller.E.L0_Replacement |         240      0.19%      0.19% |      126109     99.81%    100.00%
system.ruby.L0Cache_Controller.E.L0_Replacement::total       126349                      
system.ruby.L0Cache_Controller.M.Load    |    44828490     93.74%     93.74% |     2995069      6.26%    100.00%
system.ruby.L0Cache_Controller.M.Load::total     47823559                      
system.ruby.L0Cache_Controller.M.Store   |    45766880     93.26%     93.26% |     3308106      6.74%    100.00%
system.ruby.L0Cache_Controller.M.Store::total     49074986                      
system.ruby.L0Cache_Controller.M.Inv     |         883     30.06%     30.06% |        2054     69.94%    100.00%
system.ruby.L0Cache_Controller.M.Inv::total         2937                      
system.ruby.L0Cache_Controller.M.L0_Replacement |      285223     48.13%     48.13% |      307330     51.87%    100.00%
system.ruby.L0Cache_Controller.M.L0_Replacement::total       592553                      
system.ruby.L0Cache_Controller.IS.Data   |          21      0.27%      0.27% |        7815     99.73%    100.00%
system.ruby.L0Cache_Controller.IS.Data::total         7836                      
system.ruby.L0Cache_Controller.IS.Data_Exclusive |        2383      0.54%      0.54% |      437865     99.46%    100.00%
system.ruby.L0Cache_Controller.IS.Data_Exclusive::total       440248                      
system.ruby.L0Cache_Controller.IM.Data_Exclusive |      286308     99.99%     99.99% |          15      0.01%    100.00%
system.ruby.L0Cache_Controller.IM.Data_Exclusive::total       286323                      
system.ruby.L0Cache_Controller.SM.Data_Exclusive |          13     81.25%     81.25% |           3     18.75%    100.00%
system.ruby.L0Cache_Controller.SM.Data_Exclusive::total           16                      
system.ruby.L1Cache_Controller.Load      |        2404      0.54%      0.54% |      445680     99.46%    100.00%
system.ruby.L1Cache_Controller.Load::total       448084                      
system.ruby.L1Cache_Controller.Store     |      286321     99.99%     99.99% |          18      0.01%    100.00%
system.ruby.L1Cache_Controller.Store::total       286339                      
system.ruby.L1Cache_Controller.WriteBack |      285463     39.71%     39.71% |      433439     60.29%    100.00%
system.ruby.L1Cache_Controller.WriteBack::total       718902                      
system.ruby.L1Cache_Controller.L0_DataAck |         883     30.06%     30.06% |        2054     69.94%    100.00%
system.ruby.L1Cache_Controller.L0_DataAck::total         2937                      
system.ruby.L1Cache_Controller.Inv       |           4     23.53%     23.53% |          13     76.47%    100.00%
system.ruby.L1Cache_Controller.Inv::total           17                      
system.ruby.L1Cache_Controller.L0_Invalidate_Own |        2958     25.00%     25.00% |        8872     75.00%    100.00%
system.ruby.L1Cache_Controller.L0_Invalidate_Own::total        11830                      
system.ruby.L1Cache_Controller.L0_Invalidate_Else |        1360     97.70%     97.70% |          32      2.30%    100.00%
system.ruby.L1Cache_Controller.L0_Invalidate_Else::total         1392                      
system.ruby.L1Cache_Controller.L1_Replacement |      280460     43.43%     43.43% |      365306     56.57%    100.00%
system.ruby.L1Cache_Controller.L1_Replacement::total       645766                      
system.ruby.L1Cache_Controller.Fwd_GETS  |        7788     99.87%     99.87% |          10      0.13%    100.00%
system.ruby.L1Cache_Controller.Fwd_GETS::total         7798                      
system.ruby.L1Cache_Controller.Data      |           0      0.00%      0.00% |           1    100.00%    100.00%
system.ruby.L1Cache_Controller.Data::total            1                      
system.ruby.L1Cache_Controller.Data_Exclusive |        2348      0.64%      0.64% |      365672     99.36%    100.00%
system.ruby.L1Cache_Controller.Data_Exclusive::total       368020                      
system.ruby.L1Cache_Controller.DataS_fromL1 |          10      0.13%      0.13% |        7788     99.87%    100.00%
system.ruby.L1Cache_Controller.DataS_fromL1::total         7798                      
system.ruby.L1Cache_Controller.Data_all_Acks |      286298     99.99%     99.99% |          37      0.01%    100.00%
system.ruby.L1Cache_Controller.Data_all_Acks::total       286335                      
system.ruby.L1Cache_Controller.L0_Ack    |        1276     34.73%     34.73% |        2398     65.27%    100.00%
system.ruby.L1Cache_Controller.L0_Ack::total         3674                      
system.ruby.L1Cache_Controller.Ack       |          13     81.25%     81.25% |           3     18.75%    100.00%
system.ruby.L1Cache_Controller.Ack::total           16                      
system.ruby.L1Cache_Controller.Ack_all   |          13     76.47%     76.47% |           4     23.53%    100.00%
system.ruby.L1Cache_Controller.Ack_all::total           17                      
system.ruby.L1Cache_Controller.WB_Ack    |      279776     43.38%     43.38% |      365157     56.62%    100.00%
system.ruby.L1Cache_Controller.WB_Ack::total       644933                      
system.ruby.L1Cache_Controller.NP.Load   |        2359      0.63%      0.63% |      373483     99.37%    100.00%
system.ruby.L1Cache_Controller.NP.Load::total       375842                      
system.ruby.L1Cache_Controller.NP.Store  |      286297     99.99%     99.99% |          15      0.01%    100.00%
system.ruby.L1Cache_Controller.NP.Store::total       286312                      
system.ruby.L1Cache_Controller.S.Load    |           0      0.00%      0.00% |           4    100.00%    100.00%
system.ruby.L1Cache_Controller.S.Load::total            4                      
system.ruby.L1Cache_Controller.S.Store   |          13     81.25%     81.25% |           3     18.75%    100.00%
system.ruby.L1Cache_Controller.S.Store::total           16                      
system.ruby.L1Cache_Controller.S.L0_Invalidate_Own |           0      0.00%      0.00% |         149    100.00%    100.00%
system.ruby.L1Cache_Controller.S.L0_Invalidate_Own::total          149                      
system.ruby.L1Cache_Controller.S.L0_Invalidate_Else |           1     14.29%     14.29% |           6     85.71%    100.00%
system.ruby.L1Cache_Controller.S.L0_Invalidate_Else::total            7                      
system.ruby.L1Cache_Controller.SS.Load   |          10    100.00%    100.00% |           0      0.00%    100.00%
system.ruby.L1Cache_Controller.SS.Load::total           10                      
system.ruby.L1Cache_Controller.SS.Inv    |           4     23.53%     23.53% |          13     76.47%    100.00%
system.ruby.L1Cache_Controller.SS.Inv::total           17                      
system.ruby.L1Cache_Controller.SS.L1_Replacement |         684     82.11%     82.11% |         149     17.89%    100.00%
system.ruby.L1Cache_Controller.SS.L1_Replacement::total          833                      
system.ruby.L1Cache_Controller.E.WriteBack |         272      0.08%      0.08% |      361234     99.92%    100.00%
system.ruby.L1Cache_Controller.E.WriteBack::total       361506                      
system.ruby.L1Cache_Controller.E.L0_Invalidate_Own |        1369     24.21%     24.21% |        4285     75.79%    100.00%
system.ruby.L1Cache_Controller.E.L0_Invalidate_Own::total         5654                      
system.ruby.L1Cache_Controller.E.L0_Invalidate_Else |           9     60.00%     60.00% |           6     40.00%    100.00%
system.ruby.L1Cache_Controller.E.L0_Invalidate_Else::total           15                      
system.ruby.L1Cache_Controller.EE.L1_Replacement |        1264     36.07%     36.07% |        2240     63.93%    100.00%
system.ruby.L1Cache_Controller.EE.L1_Replacement::total         3504                      
system.ruby.L1Cache_Controller.EE.Fwd_GETS |           7     70.00%     70.00% |           3     30.00%    100.00%
system.ruby.L1Cache_Controller.EE.Fwd_GETS::total           10                      
system.ruby.L1Cache_Controller.M.WriteBack |      285191     79.80%     79.80% |       72205     20.20%    100.00%
system.ruby.L1Cache_Controller.M.WriteBack::total       357396                      
system.ruby.L1Cache_Controller.M.L0_Invalidate_Own |         110     98.21%     98.21% |           2      1.79%    100.00%
system.ruby.L1Cache_Controller.M.L0_Invalidate_Own::total          112                      
system.ruby.L1Cache_Controller.M.L0_Invalidate_Else |         670     99.41%     99.41% |           4      0.59%    100.00%
system.ruby.L1Cache_Controller.M.L0_Invalidate_Else::total          674                      
system.ruby.L1Cache_Controller.MM.Load   |          35      0.05%      0.05% |       72193     99.95%    100.00%
system.ruby.L1Cache_Controller.MM.Load::total        72228                      
system.ruby.L1Cache_Controller.MM.Store  |          11    100.00%    100.00% |           0      0.00%    100.00%
system.ruby.L1Cache_Controller.MM.Store::total           11                      
system.ruby.L1Cache_Controller.MM.L1_Replacement |      278512     43.42%     43.42% |      362917     56.58%    100.00%
system.ruby.L1Cache_Controller.MM.L1_Replacement::total       641429                      
system.ruby.L1Cache_Controller.MM.Fwd_GETS |        7781     99.91%     99.91% |           7      0.09%    100.00%
system.ruby.L1Cache_Controller.MM.Fwd_GETS::total         7788                      
system.ruby.L1Cache_Controller.IS.Data_Exclusive |        2348      0.64%      0.64% |      365672     99.36%    100.00%
system.ruby.L1Cache_Controller.IS.Data_Exclusive::total       368020                      
system.ruby.L1Cache_Controller.IS.DataS_fromL1 |          10      0.13%      0.13% |        7788     99.87%    100.00%
system.ruby.L1Cache_Controller.IS.DataS_fromL1::total         7798                      
system.ruby.L1Cache_Controller.IS.Data_all_Acks |           1      4.17%      4.17% |          23     95.83%    100.00%
system.ruby.L1Cache_Controller.IS.Data_all_Acks::total           24                      
system.ruby.L1Cache_Controller.IM.Data   |           0      0.00%      0.00% |           1    100.00%    100.00%
system.ruby.L1Cache_Controller.IM.Data::total            1                      
system.ruby.L1Cache_Controller.IM.Data_all_Acks |      286297    100.00%    100.00% |          14      0.00%    100.00%
system.ruby.L1Cache_Controller.IM.Data_all_Acks::total       286311                      
system.ruby.L1Cache_Controller.SM.Ack    |          13     81.25%     81.25% |           3     18.75%    100.00%
system.ruby.L1Cache_Controller.SM.Ack::total           16                      
system.ruby.L1Cache_Controller.SM.Ack_all |          13     76.47%     76.47% |           4     23.53%    100.00%
system.ruby.L1Cache_Controller.SM.Ack_all::total           17                      
system.ruby.L1Cache_Controller.M_I.WB_Ack |      279776     43.38%     43.38% |      365157     56.62%    100.00%
system.ruby.L1Cache_Controller.M_I.WB_Ack::total       644933                      
system.ruby.L1Cache_Controller.S_IL0.L0_Invalidate_Own |           0      0.00%      0.00% |         149    100.00%    100.00%
system.ruby.L1Cache_Controller.S_IL0.L0_Invalidate_Own::total          149                      
system.ruby.L1Cache_Controller.S_IL0.L0_Invalidate_Else |           1     14.29%     14.29% |           6     85.71%    100.00%
system.ruby.L1Cache_Controller.S_IL0.L0_Invalidate_Else::total            7                      
system.ruby.L1Cache_Controller.S_IL0.L0_Ack |           1      0.64%      0.64% |         155     99.36%    100.00%
system.ruby.L1Cache_Controller.S_IL0.L0_Ack::total          156                      
system.ruby.L1Cache_Controller.E_IL0.L0_DataAck |         107      4.97%      4.97% |        2048     95.03%    100.00%
system.ruby.L1Cache_Controller.E_IL0.L0_DataAck::total         2155                      
system.ruby.L1Cache_Controller.E_IL0.L0_Invalidate_Own |        1369     24.21%     24.21% |        4285     75.79%    100.00%
system.ruby.L1Cache_Controller.E_IL0.L0_Invalidate_Own::total         5654                      
system.ruby.L1Cache_Controller.E_IL0.L0_Invalidate_Else |           9     60.00%     60.00% |           6     40.00%    100.00%
system.ruby.L1Cache_Controller.E_IL0.L0_Invalidate_Else::total           15                      
system.ruby.L1Cache_Controller.E_IL0.L0_Ack |        1271     36.17%     36.17% |        2243     63.83%    100.00%
system.ruby.L1Cache_Controller.E_IL0.L0_Ack::total         3514                      
system.ruby.L1Cache_Controller.M_IL0.L0_DataAck |         776     99.23%     99.23% |           6      0.77%    100.00%
system.ruby.L1Cache_Controller.M_IL0.L0_DataAck::total          782                      
system.ruby.L1Cache_Controller.M_IL0.L0_Invalidate_Own |         110     98.21%     98.21% |           2      1.79%    100.00%
system.ruby.L1Cache_Controller.M_IL0.L0_Invalidate_Own::total          112                      
system.ruby.L1Cache_Controller.M_IL0.L0_Invalidate_Else |         670     99.41%     99.41% |           4      0.59%    100.00%
system.ruby.L1Cache_Controller.M_IL0.L0_Invalidate_Else::total          674                      
system.ruby.L1Cache_Controller.M_IL0.L0_Ack |           4    100.00%    100.00% |           0      0.00%    100.00%
system.ruby.L1Cache_Controller.M_IL0.L0_Ack::total            4                      
system.ruby.L2Cache_Controller.L1_GETS         375843      0.00%      0.00%
system.ruby.L2Cache_Controller.L1_GETX         286312      0.00%      0.00%
system.ruby.L2Cache_Controller.L1_UPGRADE           16      0.00%      0.00%
system.ruby.L2Cache_Controller.L1_PUTX         644933      0.00%      0.00%
system.ruby.L2Cache_Controller.Mem_Data        307033      0.00%      0.00%
system.ruby.L2Cache_Controller.WB_Data           7798      0.00%      0.00%
system.ruby.L2Cache_Controller.Unblock           7798      0.00%      0.00%
system.ruby.L2Cache_Controller.Exclusive_Unblock       654348      0.00%      0.00%
system.ruby.L2Cache_Controller.NP.L1_GETS        20880      0.00%      0.00%
system.ruby.L2Cache_Controller.NP.L1_GETX       286153      0.00%      0.00%
system.ruby.L2Cache_Controller.SS.L1_GETS           22      0.00%      0.00%
system.ruby.L2Cache_Controller.SS.L1_GETX            1      0.00%      0.00%
system.ruby.L2Cache_Controller.SS.L1_UPGRADE           16      0.00%      0.00%
system.ruby.L2Cache_Controller.M.L1_GETS       347141      0.00%      0.00%
system.ruby.L2Cache_Controller.M.L1_GETX          158      0.00%      0.00%
system.ruby.L2Cache_Controller.MT.L1_GETS         7798      0.00%      0.00%
system.ruby.L2Cache_Controller.MT.L1_PUTX       644933      0.00%      0.00%
system.ruby.L2Cache_Controller.ISS.L1_GETS            1      0.00%      0.00%
system.ruby.L2Cache_Controller.ISS.Mem_Data        20879      0.00%      0.00%
system.ruby.L2Cache_Controller.IS.Mem_Data            1      0.00%      0.00%
system.ruby.L2Cache_Controller.IM.Mem_Data       286153      0.00%      0.00%
system.ruby.L2Cache_Controller.SS_MB.L1_GETS            1      0.00%      0.00%
system.ruby.L2Cache_Controller.SS_MB.Exclusive_Unblock           17      0.00%      0.00%
system.ruby.L2Cache_Controller.MT_MB.Exclusive_Unblock       654331      0.00%      0.00%
system.ruby.L2Cache_Controller.MT_IIB.WB_Data         7798      0.00%      0.00%
system.ruby.L2Cache_Controller.MT_SB.Unblock         7798      0.00%      0.00%

---------- End Simulation Statistics   ----------
