
---------- Begin Simulation Statistics ----------
sim_seconds                                  2.908489                       # Number of seconds simulated
sim_ticks                                2908488578000                       # Number of ticks simulated
final_tick                               2908488578000                       # Number of ticks from beginning of simulation (restored from checkpoints and never reset)
sim_freq                                 1000000000000                       # Frequency of simulated ticks
host_inst_rate                                 140733                       # Simulator instruction rate (inst/s)
host_op_rate                                   389086                       # Simulator op (including micro ops) rate (op/s)
host_tick_rate                              235206269                       # Simulator tick rate (ticks/s)
host_mem_usage                                3443572                       # Number of bytes of host memory used
host_seconds                                 12365.69                       # Real time elapsed on the host
sim_insts                                  1740256309                       # Number of instructions simulated
sim_ops                                    4811320062                       # Number of ops (including micro ops) simulated
system.voltage_domain.voltage                       1                       # Voltage in Volts
system.clk_domain.clock                          1000                       # Clock period in ticks
system.mem_ctrls.bytes_read::ruby.dir_cntrl0    251784576                       # Number of bytes read from this memory
system.mem_ctrls.bytes_read::total          251784576                       # Number of bytes read from this memory
system.mem_ctrls.bytes_written::ruby.dir_cntrl0    140168128                       # Number of bytes written to this memory
system.mem_ctrls.bytes_written::total       140168128                       # Number of bytes written to this memory
system.mem_ctrls.num_reads::ruby.dir_cntrl0      3934134                       # Number of read requests responded to by this memory
system.mem_ctrls.num_reads::total             3934134                       # Number of read requests responded to by this memory
system.mem_ctrls.num_writes::ruby.dir_cntrl0      2190127                       # Number of write requests responded to by this memory
system.mem_ctrls.num_writes::total            2190127                       # Number of write requests responded to by this memory
system.mem_ctrls.bw_read::ruby.dir_cntrl0     86568872                       # Total read bandwidth from this memory (bytes/s)
system.mem_ctrls.bw_read::total              86568872                       # Total read bandwidth from this memory (bytes/s)
system.mem_ctrls.bw_write::ruby.dir_cntrl0     48192772                       # Write bandwidth from this memory (bytes/s)
system.mem_ctrls.bw_write::total             48192772                       # Write bandwidth from this memory (bytes/s)
system.mem_ctrls.bw_total::ruby.dir_cntrl0    134761645                       # Total bandwidth to/from this memory (bytes/s)
system.mem_ctrls.bw_total::total            134761645                       # Total bandwidth to/from this memory (bytes/s)
system.mem_ctrls.memReq                       6124261                       # Total number of memory requests
system.mem_ctrls.memRead                      3934134                       # Number of memory reads
system.mem_ctrls.memWrite                     2190127                       # Number of memory writes
system.mem_ctrls.memRefresh                  37254098                       # Number of memory refreshes
system.mem_ctrls.memWaitCycles               13835368                       # Delay stalled at the head of the bank queue
system.mem_ctrls.memInputQ                       1048                       # Delay in the input queue
system.mem_ctrls.memBankQ                       60430                       # Delay behind the head of the bank queue
system.mem_ctrls.totalStalls                 13896846                       # Total number of stall cycles
system.mem_ctrls.stallsPerReq                2.269147                       # Expected number of stall cycles per request
system.mem_ctrls.memBankBusy                 13690880                       # memory stalls due to busy bank
system.mem_ctrls.memBusBusy                    104449                       # memory stalls due to busy bus
system.mem_ctrls.memReadWriteBusy                 801                       # memory stalls due to read write turnaround
system.mem_ctrls.memDataBusBusy                  5140                       # memory stalls due to read read turnaround
system.mem_ctrls.memArbWait                     34098                       # memory stalls due to arbitration
system.mem_ctrls.memBankCount            |      191151      3.12%      3.12% |      191017      3.12%      6.24% |      191177      3.12%      9.36% |      191128      3.12%     12.48% |      190930      3.12%     15.60% |      191644      3.13%     18.73% |      191093      3.12%     21.85% |      191815      3.13%     24.98% |      191240      3.12%     28.10% |      190940      3.12%     31.22% |      191358      3.12%     34.35% |      190950      3.12%     37.46% |      190859      3.12%     40.58% |      191051      3.12%     43.70% |      190980      3.12%     46.82% |      190863      3.12%     49.94% |      191437      3.13%     53.06% |      191252      3.12%     56.18% |      191503      3.13%     59.31% |      191633      3.13%     62.44% |      191449      3.13%     65.57% |      191944      3.13%     68.70% |      191716      3.13%     71.83% |      191808      3.13%     74.96% |      191635      3.13%     78.09% |      191471      3.13%     81.22% |      191615      3.13%     84.35% |      191797      3.13%     87.48% |      191662      3.13%     90.61% |      191947      3.13%     93.74% |      191782      3.13%     96.87% |      191414      3.13%    100.00% # Number of accesses per bank
system.mem_ctrls.memBankCount::total          6124261                       # Number of accesses per bank
system.cpu_voltage_domain.voltage                   1                       # Voltage in Volts
system.cpu_clk_domain.clock                       500                       # Clock period in ticks
system.cpu0.apic_clk_domain.clock                8000                       # Clock period in ticks
system.cpu0.workload.num_syscalls                 110                       # Number of system calls
system.cpu0.numCycles                      5816977156                       # number of cpu cycles simulated
system.cpu0.numWorkItemsStarted                     0                       # number of work items this cpu started
system.cpu0.numWorkItemsCompleted                   0                       # number of work items this cpu completed
system.cpu0.committedInsts                 1624101845                       # Number of instructions committed
system.cpu0.committedOps                   4579023672                       # Number of ops (including micro ops) committed
system.cpu0.num_int_alu_accesses           4322840052                       # Number of integer alu accesses
system.cpu0.num_fp_alu_accesses             108341154                       # Number of float alu accesses
system.cpu0.num_func_calls                  152159734                       # number of times a function call or return occured
system.cpu0.num_conditional_control_insts    357814210                       # number of instructions that are conditional controls
system.cpu0.num_int_insts                  4322840052                       # number of integer instructions
system.cpu0.num_fp_insts                    108341154                       # number of float instructions
system.cpu0.num_int_register_reads         9117721066                       # number of times the integer registers were read
system.cpu0.num_int_register_writes        4289885604                       # number of times the integer registers were written
system.cpu0.num_fp_register_reads           174106828                       # number of times the floating registers were read
system.cpu0.num_fp_register_writes           85151978                       # number of times the floating registers were written
system.cpu0.num_cc_register_reads          3661800816                       # number of times the CC registers were read
system.cpu0.num_cc_register_writes         1370395798                       # number of times the CC registers were written
system.cpu0.num_mem_refs                    714415871                       # number of memory refs
system.cpu0.num_load_insts                  435487730                       # Number of load instructions
system.cpu0.num_store_insts                 278928141                       # Number of store instructions
system.cpu0.num_idle_cycles                  0.002000                       # Number of idle cycles
system.cpu0.num_busy_cycles              5816977155.998000                       # Number of busy cycles
system.cpu0.not_idle_fraction                1.000000                       # Percentage of non-idle cycles
system.cpu0.idle_fraction                    0.000000                       # Percentage of idle cycles
system.cpu0.Branches                        582972244                       # Number of branches fetched
system.cpu0.op_class::No_OpClass             88981570      1.94%      1.94% # Class of executed instruction
system.cpu0.op_class::IntAlu               3310438152     72.30%     74.24% # Class of executed instruction
system.cpu0.op_class::IntMult                     349      0.00%     74.24% # Class of executed instruction
system.cpu0.op_class::IntDiv                380036499      8.30%     82.54% # Class of executed instruction
system.cpu0.op_class::FloatAdd               85151231      1.86%     84.40% # Class of executed instruction
system.cpu0.op_class::FloatCmp                      0      0.00%     84.40% # Class of executed instruction
system.cpu0.op_class::FloatCvt                      0      0.00%     84.40% # Class of executed instruction
system.cpu0.op_class::FloatMult                     0      0.00%     84.40% # Class of executed instruction
system.cpu0.op_class::FloatDiv                      0      0.00%     84.40% # Class of executed instruction
system.cpu0.op_class::FloatSqrt                     0      0.00%     84.40% # Class of executed instruction
system.cpu0.op_class::SimdAdd                       0      0.00%     84.40% # Class of executed instruction
system.cpu0.op_class::SimdAddAcc                    0      0.00%     84.40% # Class of executed instruction
system.cpu0.op_class::SimdAlu                       0      0.00%     84.40% # Class of executed instruction
system.cpu0.op_class::SimdCmp                       0      0.00%     84.40% # Class of executed instruction
system.cpu0.op_class::SimdCvt                       0      0.00%     84.40% # Class of executed instruction
system.cpu0.op_class::SimdMisc                      0      0.00%     84.40% # Class of executed instruction
system.cpu0.op_class::SimdMult                      0      0.00%     84.40% # Class of executed instruction
system.cpu0.op_class::SimdMultAcc                   0      0.00%     84.40% # Class of executed instruction
system.cpu0.op_class::SimdShift                     0      0.00%     84.40% # Class of executed instruction
system.cpu0.op_class::SimdShiftAcc                  0      0.00%     84.40% # Class of executed instruction
system.cpu0.op_class::SimdSqrt                      0      0.00%     84.40% # Class of executed instruction
system.cpu0.op_class::SimdFloatAdd                  0      0.00%     84.40% # Class of executed instruction
system.cpu0.op_class::SimdFloatAlu                  0      0.00%     84.40% # Class of executed instruction
system.cpu0.op_class::SimdFloatCmp                  0      0.00%     84.40% # Class of executed instruction
system.cpu0.op_class::SimdFloatCvt                  0      0.00%     84.40% # Class of executed instruction
system.cpu0.op_class::SimdFloatDiv                  0      0.00%     84.40% # Class of executed instruction
system.cpu0.op_class::SimdFloatMisc                 0      0.00%     84.40% # Class of executed instruction
system.cpu0.op_class::SimdFloatMult                 0      0.00%     84.40% # Class of executed instruction
system.cpu0.op_class::SimdFloatMultAcc              0      0.00%     84.40% # Class of executed instruction
system.cpu0.op_class::SimdFloatSqrt                 0      0.00%     84.40% # Class of executed instruction
system.cpu0.op_class::MemRead               435487730      9.51%     93.91% # Class of executed instruction
system.cpu0.op_class::MemWrite              278928141      6.09%    100.00% # Class of executed instruction
system.cpu0.op_class::IprAccess                     0      0.00%    100.00% # Class of executed instruction
system.cpu0.op_class::InstPrefetch                  0      0.00%    100.00% # Class of executed instruction
system.cpu0.op_class::total                4579023672                       # Class of executed instruction
system.cpu1.apic_clk_domain.clock                8000                       # Clock period in ticks
system.cpu1.numCycles                      5816741160                       # number of cpu cycles simulated
system.cpu1.numWorkItemsStarted                     0                       # number of work items this cpu started
system.cpu1.numWorkItemsCompleted                   0                       # number of work items this cpu completed
system.cpu1.committedInsts                   58077232                       # Number of instructions committed
system.cpu1.committedOps                    116148195                       # Number of ops (including micro ops) committed
system.cpu1.num_int_alu_accesses             87175319                       # Number of integer alu accesses
system.cpu1.num_fp_alu_accesses              56894279                       # Number of float alu accesses
system.cpu1.num_func_calls                     161815                       # number of times a function call or return occured
system.cpu1.num_conditional_control_insts      7134452                       # number of instructions that are conditional controls
system.cpu1.num_int_insts                    87175319                       # number of integer instructions
system.cpu1.num_fp_insts                     56894279                       # number of float instructions
system.cpu1.num_int_register_reads          153196448                       # number of times the integer registers were read
system.cpu1.num_int_register_writes          52032168                       # number of times the integer registers were written
system.cpu1.num_fp_register_reads            86190677                       # number of times the floating registers were read
system.cpu1.num_fp_register_writes           56813392                       # number of times the floating registers were written
system.cpu1.num_cc_register_reads            42887640                       # number of times the CC registers were read
system.cpu1.num_cc_register_writes           42862530                       # number of times the CC registers were written
system.cpu1.num_mem_refs                     28338623                       # number of memory refs
system.cpu1.num_load_insts                   28176742                       # Number of load instructions
system.cpu1.num_store_insts                    161881                       # Number of store instructions
system.cpu1.num_idle_cycles              5529798571.794221                       # Number of idle cycles
system.cpu1.num_busy_cycles              286942588.205779                       # Number of busy cycles
system.cpu1.not_idle_fraction                0.049330                       # Percentage of non-idle cycles
system.cpu1.idle_fraction                    0.950670                       # Percentage of idle cycles
system.cpu1.Branches                          7383422                       # Number of branches fetched
system.cpu1.op_class::No_OpClass                    2      0.00%      0.00% # Class of executed instruction
system.cpu1.op_class::IntAlu                 58594024     50.45%     50.45% # Class of executed instruction
system.cpu1.op_class::IntMult                  242657      0.21%     50.66% # Class of executed instruction
system.cpu1.op_class::IntDiv                       14      0.00%     50.66% # Class of executed instruction
system.cpu1.op_class::FloatAdd               28972875     24.94%     75.60% # Class of executed instruction
system.cpu1.op_class::FloatCmp                      0      0.00%     75.60% # Class of executed instruction
system.cpu1.op_class::FloatCvt                      0      0.00%     75.60% # Class of executed instruction
system.cpu1.op_class::FloatMult                     0      0.00%     75.60% # Class of executed instruction
system.cpu1.op_class::FloatDiv                      0      0.00%     75.60% # Class of executed instruction
system.cpu1.op_class::FloatSqrt                     0      0.00%     75.60% # Class of executed instruction
system.cpu1.op_class::SimdAdd                       0      0.00%     75.60% # Class of executed instruction
system.cpu1.op_class::SimdAddAcc                    0      0.00%     75.60% # Class of executed instruction
system.cpu1.op_class::SimdAlu                       0      0.00%     75.60% # Class of executed instruction
system.cpu1.op_class::SimdCmp                       0      0.00%     75.60% # Class of executed instruction
system.cpu1.op_class::SimdCvt                       0      0.00%     75.60% # Class of executed instruction
system.cpu1.op_class::SimdMisc                      0      0.00%     75.60% # Class of executed instruction
system.cpu1.op_class::SimdMult                      0      0.00%     75.60% # Class of executed instruction
system.cpu1.op_class::SimdMultAcc                   0      0.00%     75.60% # Class of executed instruction
system.cpu1.op_class::SimdShift                     0      0.00%     75.60% # Class of executed instruction
system.cpu1.op_class::SimdShiftAcc                  0      0.00%     75.60% # Class of executed instruction
system.cpu1.op_class::SimdSqrt                      0      0.00%     75.60% # Class of executed instruction
system.cpu1.op_class::SimdFloatAdd                  0      0.00%     75.60% # Class of executed instruction
system.cpu1.op_class::SimdFloatAlu                  0      0.00%     75.60% # Class of executed instruction
system.cpu1.op_class::SimdFloatCmp                  0      0.00%     75.60% # Class of executed instruction
system.cpu1.op_class::SimdFloatCvt                  0      0.00%     75.60% # Class of executed instruction
system.cpu1.op_class::SimdFloatDiv                  0      0.00%     75.60% # Class of executed instruction
system.cpu1.op_class::SimdFloatMisc                 0      0.00%     75.60% # Class of executed instruction
system.cpu1.op_class::SimdFloatMult                 0      0.00%     75.60% # Class of executed instruction
system.cpu1.op_class::SimdFloatMultAcc              0      0.00%     75.60% # Class of executed instruction
system.cpu1.op_class::SimdFloatSqrt                 0      0.00%     75.60% # Class of executed instruction
system.cpu1.op_class::MemRead                28176742     24.26%     99.86% # Class of executed instruction
system.cpu1.op_class::MemWrite                 161881      0.14%    100.00% # Class of executed instruction
system.cpu1.op_class::IprAccess                     0      0.00%    100.00% # Class of executed instruction
system.cpu1.op_class::InstPrefetch                  0      0.00%    100.00% # Class of executed instruction
system.cpu1.op_class::total                 116148195                       # Class of executed instruction
system.cpu2.apic_clk_domain.clock                8000                       # Clock period in ticks
system.cpu2.numCycles                      5795898894                       # number of cpu cycles simulated
system.cpu2.numWorkItemsStarted                     0                       # number of work items this cpu started
system.cpu2.numWorkItemsCompleted                   0                       # number of work items this cpu completed
system.cpu2.committedInsts                   58077232                       # Number of instructions committed
system.cpu2.committedOps                    116148195                       # Number of ops (including micro ops) committed
system.cpu2.num_int_alu_accesses             87175319                       # Number of integer alu accesses
system.cpu2.num_fp_alu_accesses              56894279                       # Number of float alu accesses
system.cpu2.num_func_calls                     161815                       # number of times a function call or return occured
system.cpu2.num_conditional_control_insts      7134452                       # number of instructions that are conditional controls
system.cpu2.num_int_insts                    87175319                       # number of integer instructions
system.cpu2.num_fp_insts                     56894279                       # number of float instructions
system.cpu2.num_int_register_reads          153196448                       # number of times the integer registers were read
system.cpu2.num_int_register_writes          52032168                       # number of times the integer registers were written
system.cpu2.num_fp_register_reads            86190677                       # number of times the floating registers were read
system.cpu2.num_fp_register_writes           56813392                       # number of times the floating registers were written
system.cpu2.num_cc_register_reads            42887640                       # number of times the CC registers were read
system.cpu2.num_cc_register_writes           42862530                       # number of times the CC registers were written
system.cpu2.num_mem_refs                     28338623                       # number of memory refs
system.cpu2.num_load_insts                   28176742                       # Number of load instructions
system.cpu2.num_store_insts                    161881                       # Number of store instructions
system.cpu2.num_idle_cycles              5530751681.347036                       # Number of idle cycles
system.cpu2.num_busy_cycles              265147212.652964                       # Number of busy cycles
system.cpu2.not_idle_fraction                0.045747                       # Percentage of non-idle cycles
system.cpu2.idle_fraction                    0.954253                       # Percentage of idle cycles
system.cpu2.Branches                          7383422                       # Number of branches fetched
system.cpu2.op_class::No_OpClass                    2      0.00%      0.00% # Class of executed instruction
system.cpu2.op_class::IntAlu                 58594024     50.45%     50.45% # Class of executed instruction
system.cpu2.op_class::IntMult                  242657      0.21%     50.66% # Class of executed instruction
system.cpu2.op_class::IntDiv                       14      0.00%     50.66% # Class of executed instruction
system.cpu2.op_class::FloatAdd               28972875     24.94%     75.60% # Class of executed instruction
system.cpu2.op_class::FloatCmp                      0      0.00%     75.60% # Class of executed instruction
system.cpu2.op_class::FloatCvt                      0      0.00%     75.60% # Class of executed instruction
system.cpu2.op_class::FloatMult                     0      0.00%     75.60% # Class of executed instruction
system.cpu2.op_class::FloatDiv                      0      0.00%     75.60% # Class of executed instruction
system.cpu2.op_class::FloatSqrt                     0      0.00%     75.60% # Class of executed instruction
system.cpu2.op_class::SimdAdd                       0      0.00%     75.60% # Class of executed instruction
system.cpu2.op_class::SimdAddAcc                    0      0.00%     75.60% # Class of executed instruction
system.cpu2.op_class::SimdAlu                       0      0.00%     75.60% # Class of executed instruction
system.cpu2.op_class::SimdCmp                       0      0.00%     75.60% # Class of executed instruction
system.cpu2.op_class::SimdCvt                       0      0.00%     75.60% # Class of executed instruction
system.cpu2.op_class::SimdMisc                      0      0.00%     75.60% # Class of executed instruction
system.cpu2.op_class::SimdMult                      0      0.00%     75.60% # Class of executed instruction
system.cpu2.op_class::SimdMultAcc                   0      0.00%     75.60% # Class of executed instruction
system.cpu2.op_class::SimdShift                     0      0.00%     75.60% # Class of executed instruction
system.cpu2.op_class::SimdShiftAcc                  0      0.00%     75.60% # Class of executed instruction
system.cpu2.op_class::SimdSqrt                      0      0.00%     75.60% # Class of executed instruction
system.cpu2.op_class::SimdFloatAdd                  0      0.00%     75.60% # Class of executed instruction
system.cpu2.op_class::SimdFloatAlu                  0      0.00%     75.60% # Class of executed instruction
system.cpu2.op_class::SimdFloatCmp                  0      0.00%     75.60% # Class of executed instruction
system.cpu2.op_class::SimdFloatCvt                  0      0.00%     75.60% # Class of executed instruction
system.cpu2.op_class::SimdFloatDiv                  0      0.00%     75.60% # Class of executed instruction
system.cpu2.op_class::SimdFloatMisc                 0      0.00%     75.60% # Class of executed instruction
system.cpu2.op_class::SimdFloatMult                 0      0.00%     75.60% # Class of executed instruction
system.cpu2.op_class::SimdFloatMultAcc              0      0.00%     75.60% # Class of executed instruction
system.cpu2.op_class::SimdFloatSqrt                 0      0.00%     75.60% # Class of executed instruction
system.cpu2.op_class::MemRead                28176742     24.26%     99.86% # Class of executed instruction
system.cpu2.op_class::MemWrite                 161881      0.14%    100.00% # Class of executed instruction
system.cpu2.op_class::IprAccess                     0      0.00%    100.00% # Class of executed instruction
system.cpu2.op_class::InstPrefetch                  0      0.00%    100.00% # Class of executed instruction
system.cpu2.op_class::total                 116148195                       # Class of executed instruction
system.ruby.clk_domain.clock                      500                       # Clock period in ticks
system.ruby.delayHist::bucket_size                  8                       # delay histogram for all message
system.ruby.delayHist::max_bucket                  79                       # delay histogram for all message
system.ruby.delayHist::samples               40607205                       # delay histogram for all message
system.ruby.delayHist::mean                  0.251709                       # delay histogram for all message
system.ruby.delayHist::stdev                 1.381880                       # delay histogram for all message
system.ruby.delayHist                    |    39424476     97.09%     97.09% |     1180562      2.91%     99.99% |        2050      0.01%    100.00% |          10      0.00%    100.00% |          19      0.00%    100.00% |          58      0.00%    100.00% |          25      0.00%    100.00% |           4      0.00%    100.00% |           1      0.00%    100.00% |           0      0.00%    100.00% # delay histogram for all message
system.ruby.delayHist::total                 40607205                       # delay histogram for all message
system.ruby.outstanding_req_hist::bucket_size            1                      
system.ruby.outstanding_req_hist::max_bucket            9                      
system.ruby.outstanding_req_hist::samples   3033008638                      
system.ruby.outstanding_req_hist::mean       1.000194                      
system.ruby.outstanding_req_hist::gmean      1.000135                      
system.ruby.outstanding_req_hist::stdev      0.013945                      
system.ruby.outstanding_req_hist         |           0      0.00%      0.00% |  3032418750     99.98%     99.98% |      589888      0.02%    100.00% |           0      0.00%    100.00% |           0      0.00%    100.00% |           0      0.00%    100.00% |           0      0.00%    100.00% |           0      0.00%    100.00% |           0      0.00%    100.00% |           0      0.00%    100.00%
system.ruby.outstanding_req_hist::total    3033008638                      
system.ruby.latency_hist::bucket_size              16                      
system.ruby.latency_hist::max_bucket              159                      
system.ruby.latency_hist::samples          3033008638                      
system.ruby.latency_hist::mean               1.100531                      
system.ruby.latency_hist::gmean              1.007210                      
system.ruby.latency_hist::stdev              2.573910                      
system.ruby.latency_hist                 |  3027623751     99.82%     99.82% |     1447532      0.05%     99.87% |        3173      0.00%     99.87% |     2117811      0.07%     99.94% |      705633      0.02%     99.96% |     1094287      0.04%    100.00% |       16332      0.00%    100.00% |         107      0.00%    100.00% |          12      0.00%    100.00% |           0      0.00%    100.00%
system.ruby.latency_hist::total            3033008638                      
system.ruby.hit_latency_hist::bucket_size           16                      
system.ruby.hit_latency_hist::max_bucket          159                      
system.ruby.hit_latency_hist::samples      3033008638                      
system.ruby.hit_latency_hist::mean           1.100531                      
system.ruby.hit_latency_hist::gmean          1.007210                      
system.ruby.hit_latency_hist::stdev          2.573910                      
system.ruby.hit_latency_hist             |  3027623751     99.82%     99.82% |     1447532      0.05%     99.87% |        3173      0.00%     99.87% |     2117811      0.07%     99.94% |      705633      0.02%     99.96% |     1094287      0.04%    100.00% |       16332      0.00%    100.00% |         107      0.00%    100.00% |          12      0.00%    100.00% |           0      0.00%    100.00%
system.ruby.hit_latency_hist::total        3033008638                      
system.ruby.l0_cntrl0.Dcache.demand_hits    712242113                       # Number of cache demand hits
system.ruby.l0_cntrl0.Dcache.demand_misses      2173822                       # Number of cache demand misses
system.ruby.l0_cntrl0.Dcache.demand_accesses    714415935                       # Number of cache demand accesses
system.ruby.l0_cntrl0.Icache.demand_hits   2112310275                       # Number of cache demand hits
system.ruby.l0_cntrl0.Icache.demand_misses         3978                       # Number of cache demand misses
system.ruby.l0_cntrl0.Icache.demand_accesses   2112314253                       # Number of cache demand accesses
system.ruby.l0_cntrl0.Zcache.demand_hits            0                       # Number of cache demand hits
system.ruby.l0_cntrl0.Zcache.demand_misses            0                       # Number of cache demand misses
system.ruby.l0_cntrl0.Zcache.demand_accesses            0                       # Number of cache demand accesses
system.ruby.l0_cntrl1.Dcache.demand_hits     26832531                       # Number of cache demand hits
system.ruby.l0_cntrl1.Dcache.demand_misses      1801004                       # Number of cache demand misses
system.ruby.l0_cntrl1.Dcache.demand_accesses     28633535                       # Number of cache demand accesses
system.ruby.l0_cntrl1.Icache.demand_hits     74504477                       # Number of cache demand hits
system.ruby.l0_cntrl1.Icache.demand_misses         1213                       # Number of cache demand misses
system.ruby.l0_cntrl1.Icache.demand_accesses     74505690                       # Number of cache demand accesses
system.ruby.l0_cntrl1.Zcache.demand_hits            0                       # Number of cache demand hits
system.ruby.l0_cntrl1.Zcache.demand_misses            0                       # Number of cache demand misses
system.ruby.l0_cntrl1.Zcache.demand_accesses            0                       # Number of cache demand accesses
system.ruby.l0_cntrl2.Dcache.demand_hits     26827726                       # Number of cache demand hits
system.ruby.l0_cntrl2.Dcache.demand_misses      1805809                       # Number of cache demand misses
system.ruby.l0_cntrl2.Dcache.demand_accesses     28633535                       # Number of cache demand accesses
system.ruby.l0_cntrl2.Icache.demand_hits     74503959                       # Number of cache demand hits
system.ruby.l0_cntrl2.Icache.demand_misses         1731                       # Number of cache demand misses
system.ruby.l0_cntrl2.Icache.demand_accesses     74505690                       # Number of cache demand accesses
system.ruby.l0_cntrl2.Zcache.demand_hits            0                       # Number of cache demand hits
system.ruby.l0_cntrl2.Zcache.demand_misses            0                       # Number of cache demand misses
system.ruby.l0_cntrl2.Zcache.demand_accesses            0                       # Number of cache demand accesses
system.ruby.l1_cntrl0.cache.demand_hits           115                       # Number of cache demand hits
system.ruby.l1_cntrl0.cache.demand_misses      2177685                       # Number of cache demand misses
system.ruby.l1_cntrl0.cache.demand_accesses      2177800                       # Number of cache demand accesses
system.ruby.l1_cntrl1.cache.demand_hits        228143                       # Number of cache demand hits
system.ruby.l1_cntrl1.cache.demand_misses      1574074                       # Number of cache demand misses
system.ruby.l1_cntrl1.cache.demand_accesses      1802217                       # Number of cache demand accesses
system.ruby.l1_cntrl2.cache.demand_hits        174412                       # Number of cache demand hits
system.ruby.l1_cntrl2.cache.demand_misses      1633128                       # Number of cache demand misses
system.ruby.l1_cntrl2.cache.demand_accesses      1807540                       # Number of cache demand accesses
system.ruby.l2_cntrl0.L2cache.demand_hits      1449022                       # Number of cache demand hits
system.ruby.l2_cntrl0.L2cache.demand_misses      3935865                       # Number of cache demand misses
system.ruby.l2_cntrl0.L2cache.demand_accesses      5384887                       # Number of cache demand accesses
system.ruby.l2_cntrl0.fully_busy_cycles           325                       # cycles for which number of transistions == max transitions
system.ruby.memctrl_clk_domain.clock             1500                       # Clock period in ticks
system.ruby.network.routers0.percent_links_utilized            0                      
system.ruby.network.routers1.percent_links_utilized            0                      
system.ruby.network.routers2.percent_links_utilized            0                      
system.ruby.network.routers3.percent_links_utilized     0.196477                      
system.ruby.network.routers3.msg_count.Control::0      2177685                      
system.ruby.network.routers3.msg_count.Request_Control::2      1079181                      
system.ruby.network.routers3.msg_count.Response_Data::1      2177698                      
system.ruby.network.routers3.msg_count.Response_Control::1      1098154                      
system.ruby.network.routers3.msg_count.Response_Control::2      2177683                      
system.ruby.network.routers3.msg_count.Writeback_Data::0      1097164                      
system.ruby.network.routers3.msg_count.Writeback_Data::1      1078773                      
system.ruby.network.routers3.msg_count.Writeback_Control::0          576                      
system.ruby.network.routers3.msg_bytes.Control::0     17421480                      
system.ruby.network.routers3.msg_bytes.Request_Control::2      8633448                      
system.ruby.network.routers3.msg_bytes.Response_Data::1    156794256                      
system.ruby.network.routers3.msg_bytes.Response_Control::1      8785232                      
system.ruby.network.routers3.msg_bytes.Response_Control::2     17421464                      
system.ruby.network.routers3.msg_bytes.Writeback_Data::0     78995808                      
system.ruby.network.routers3.msg_bytes.Writeback_Data::1     77671656                      
system.ruby.network.routers3.msg_bytes.Writeback_Control::0         4608                      
system.ruby.network.routers4.percent_links_utilized     0.111992                      
system.ruby.network.routers4.msg_count.Control::0      1574074                      
system.ruby.network.routers4.msg_count.Request_Control::2       685213                      
system.ruby.network.routers4.msg_count.Response_Data::1      1575860                      
system.ruby.network.routers4.msg_count.Response_Control::1       890577                      
system.ruby.network.routers4.msg_count.Response_Control::2      1571213                      
system.ruby.network.routers4.msg_count.Writeback_Data::0        22047                      
system.ruby.network.routers4.msg_count.Writeback_Data::1       677175                      
system.ruby.network.routers4.msg_count.Writeback_Control::0       861385                      
system.ruby.network.routers4.msg_bytes.Control::0     12592592                      
system.ruby.network.routers4.msg_bytes.Request_Control::2      5481704                      
system.ruby.network.routers4.msg_bytes.Response_Data::1    113461920                      
system.ruby.network.routers4.msg_bytes.Response_Control::1      7124616                      
system.ruby.network.routers4.msg_bytes.Response_Control::2     12569704                      
system.ruby.network.routers4.msg_bytes.Writeback_Data::0      1587384                      
system.ruby.network.routers4.msg_bytes.Writeback_Data::1     48756600                      
system.ruby.network.routers4.msg_bytes.Writeback_Control::0      6891080                      
system.ruby.network.routers5.percent_links_utilized     0.108416                      
system.ruby.network.routers5.msg_count.Control::0      1633128                      
system.ruby.network.routers5.msg_count.Request_Control::2       488627                      
system.ruby.network.routers5.msg_count.Response_Data::1      1634649                      
system.ruby.network.routers5.msg_count.Response_Control::1      1152567                      
system.ruby.network.routers5.msg_count.Response_Control::2      1629176                      
system.ruby.network.routers5.msg_count.Writeback_Data::0        22424                      
system.ruby.network.routers5.msg_count.Writeback_Data::1       476671                      
system.ruby.network.routers5.msg_count.Writeback_Control::0      1118946                      
system.ruby.network.routers5.msg_bytes.Control::0     13065024                      
system.ruby.network.routers5.msg_bytes.Request_Control::2      3909016                      
system.ruby.network.routers5.msg_bytes.Response_Data::1    117694728                      
system.ruby.network.routers5.msg_bytes.Response_Control::1      9220536                      
system.ruby.network.routers5.msg_bytes.Response_Control::2     13033408                      
system.ruby.network.routers5.msg_bytes.Writeback_Data::0      1614528                      
system.ruby.network.routers5.msg_bytes.Writeback_Data::1     34320312                      
system.ruby.network.routers5.msg_bytes.Writeback_Control::0      8951568                      
system.ruby.network.routers6.percent_links_utilized     0.694767                      
system.ruby.network.routers6.msg_count.Control::0      9319021                      
system.ruby.network.routers6.msg_count.Request_Control::2      2251308                      
system.ruby.network.routers6.msg_count.Response_Data::1     11509070                      
system.ruby.network.routers6.msg_count.Response_Control::1      8778457                      
system.ruby.network.routers6.msg_count.Response_Control::2      5378072                      
system.ruby.network.routers6.msg_count.Writeback_Data::0      1141635                      
system.ruby.network.routers6.msg_count.Writeback_Data::1      2232619                      
system.ruby.network.routers6.msg_count.Writeback_Control::0      1980907                      
system.ruby.network.routers6.msg_bytes.Control::0     74552168                      
system.ruby.network.routers6.msg_bytes.Request_Control::2     18010464                      
system.ruby.network.routers6.msg_bytes.Response_Data::1    828653040                      
system.ruby.network.routers6.msg_bytes.Response_Control::1     70227656                      
system.ruby.network.routers6.msg_bytes.Response_Control::2     43024576                      
system.ruby.network.routers6.msg_bytes.Writeback_Data::0     82197720                      
system.ruby.network.routers6.msg_bytes.Writeback_Data::1    160748568                      
system.ruby.network.routers6.msg_bytes.Writeback_Control::0     15847256                      
system.ruby.network.routers7.percent_links_utilized     0.278021                      
system.ruby.network.routers7.msg_count.Control::0      3934134                      
system.ruby.network.routers7.msg_count.Response_Data::1      6124261                      
system.ruby.network.routers7.msg_count.Response_Control::1      5637181                      
system.ruby.network.routers7.msg_bytes.Control::0     31473072                      
system.ruby.network.routers7.msg_bytes.Response_Data::1    440946792                      
system.ruby.network.routers7.msg_bytes.Response_Control::1     45097448                      
system.ruby.network.routers8.percent_links_utilized     0.173710                      
system.ruby.network.routers8.msg_count.Control::0      9319021                      
system.ruby.network.routers8.msg_count.Request_Control::2      2253021                      
system.ruby.network.routers8.msg_count.Response_Data::1     11510801                      
system.ruby.network.routers8.msg_count.Response_Control::1      8778468                      
system.ruby.network.routers8.msg_count.Response_Control::2      5378072                      
system.ruby.network.routers8.msg_count.Writeback_Data::0      1141635                      
system.ruby.network.routers8.msg_count.Writeback_Data::1      2232619                      
system.ruby.network.routers8.msg_count.Writeback_Control::0      1980907                      
system.ruby.network.routers8.msg_bytes.Control::0     74552168                      
system.ruby.network.routers8.msg_bytes.Request_Control::2     18024168                      
system.ruby.network.routers8.msg_bytes.Response_Data::1    828777672                      
system.ruby.network.routers8.msg_bytes.Response_Control::1     70227744                      
system.ruby.network.routers8.msg_bytes.Response_Control::2     43024576                      
system.ruby.network.routers8.msg_bytes.Writeback_Data::0     82197720                      
system.ruby.network.routers8.msg_bytes.Writeback_Data::1    160748568                      
system.ruby.network.routers8.msg_bytes.Writeback_Control::0     15847256                      
system.ruby.network.msg_count.Control        27957063                      
system.ruby.network.msg_count.Request_Control      6757350                      
system.ruby.network.msg_count.Response_Data     34532339                      
system.ruby.network.msg_count.Response_Control     42469620                      
system.ruby.network.msg_count.Writeback_Data     10122762                      
system.ruby.network.msg_count.Writeback_Control      5942721                      
system.ruby.network.msg_byte.Control        223656504                      
system.ruby.network.msg_byte.Request_Control     54058800                      
system.ruby.network.msg_byte.Response_Data   2486328408                      
system.ruby.network.msg_byte.Response_Control    339756960                      
system.ruby.network.msg_byte.Writeback_Data    728838864                      
system.ruby.network.msg_byte.Writeback_Control     47541768                      
system.ruby.network.routers0.throttle0.link_utilization            0                      
system.ruby.network.routers0.throttle1.link_utilization            0                      
system.ruby.network.routers1.throttle0.link_utilization            0                      
system.ruby.network.routers1.throttle1.link_utilization            0                      
system.ruby.network.routers2.throttle0.link_utilization            0                      
system.ruby.network.routers2.throttle1.link_utilization            0                      
system.ruby.network.routers3.throttle0.link_utilization     0.187177                      
system.ruby.network.routers3.throttle0.msg_count.Request_Control::2      1079181                      
system.ruby.network.routers3.throttle0.msg_count.Response_Data::1      2177677                      
system.ruby.network.routers3.throttle0.msg_count.Response_Control::1      1097757                      
system.ruby.network.routers3.throttle0.msg_bytes.Request_Control::2      8633448                      
system.ruby.network.routers3.throttle0.msg_bytes.Response_Data::1    156792744                      
system.ruby.network.routers3.throttle0.msg_bytes.Response_Control::1      8782056                      
system.ruby.network.routers3.throttle1.link_utilization     0.205777                      
system.ruby.network.routers3.throttle1.msg_count.Control::0      2177685                      
system.ruby.network.routers3.throttle1.msg_count.Response_Data::1           21                      
system.ruby.network.routers3.throttle1.msg_count.Response_Control::1          397                      
system.ruby.network.routers3.throttle1.msg_count.Response_Control::2      2177683                      
system.ruby.network.routers3.throttle1.msg_count.Writeback_Data::0      1097164                      
system.ruby.network.routers3.throttle1.msg_count.Writeback_Data::1      1078773                      
system.ruby.network.routers3.throttle1.msg_count.Writeback_Control::0          576                      
system.ruby.network.routers3.throttle1.msg_bytes.Control::0     17421480                      
system.ruby.network.routers3.throttle1.msg_bytes.Response_Data::1         1512                      
system.ruby.network.routers3.throttle1.msg_bytes.Response_Control::1         3176                      
system.ruby.network.routers3.throttle1.msg_bytes.Response_Control::2     17421464                      
system.ruby.network.routers3.throttle1.msg_bytes.Writeback_Data::0     78995808                      
system.ruby.network.routers3.throttle1.msg_bytes.Writeback_Data::1     77671656                      
system.ruby.network.routers3.throttle1.msg_bytes.Writeback_Control::0         4608                      
system.ruby.network.routers4.throttle0.link_utilization     0.135253                      
system.ruby.network.routers4.throttle0.msg_count.Request_Control::2       685213                      
system.ruby.network.routers4.throttle0.msg_count.Response_Data::1      1574073                      
system.ruby.network.routers4.throttle0.msg_count.Response_Control::1       883434                      
system.ruby.network.routers4.throttle0.msg_bytes.Request_Control::2      5481704                      
system.ruby.network.routers4.throttle0.msg_bytes.Response_Data::1    113333256                      
system.ruby.network.routers4.throttle0.msg_bytes.Response_Control::1      7067472                      
system.ruby.network.routers4.throttle1.link_utilization     0.088731                      
system.ruby.network.routers4.throttle1.msg_count.Control::0      1574074                      
system.ruby.network.routers4.throttle1.msg_count.Response_Data::1         1787                      
system.ruby.network.routers4.throttle1.msg_count.Response_Control::1         7143                      
system.ruby.network.routers4.throttle1.msg_count.Response_Control::2      1571213                      
system.ruby.network.routers4.throttle1.msg_count.Writeback_Data::0        22047                      
system.ruby.network.routers4.throttle1.msg_count.Writeback_Data::1       677175                      
system.ruby.network.routers4.throttle1.msg_count.Writeback_Control::0       861385                      
system.ruby.network.routers4.throttle1.msg_bytes.Control::0     12592592                      
system.ruby.network.routers4.throttle1.msg_bytes.Response_Data::1       128664                      
system.ruby.network.routers4.throttle1.msg_bytes.Response_Control::1        57144                      
system.ruby.network.routers4.throttle1.msg_bytes.Response_Control::2     12569704                      
system.ruby.network.routers4.throttle1.msg_bytes.Writeback_Data::0      1587384                      
system.ruby.network.routers4.throttle1.msg_bytes.Writeback_Data::1     48756600                      
system.ruby.network.routers4.throttle1.msg_bytes.Writeback_Control::0      6891080                      
system.ruby.network.routers5.throttle0.link_utilization     0.140349                      
system.ruby.network.routers5.throttle0.msg_count.Request_Control::2       488627                      
system.ruby.network.routers5.throttle0.msg_count.Response_Data::1      1633127                      
system.ruby.network.routers5.throttle0.msg_count.Response_Control::1      1141372                      
system.ruby.network.routers5.throttle0.msg_bytes.Request_Control::2      3909016                      
system.ruby.network.routers5.throttle0.msg_bytes.Response_Data::1    117585144                      
system.ruby.network.routers5.throttle0.msg_bytes.Response_Control::1      9130976                      
system.ruby.network.routers5.throttle1.link_utilization     0.076483                      
system.ruby.network.routers5.throttle1.msg_count.Control::0      1633128                      
system.ruby.network.routers5.throttle1.msg_count.Response_Data::1         1522                      
system.ruby.network.routers5.throttle1.msg_count.Response_Control::1        11195                      
system.ruby.network.routers5.throttle1.msg_count.Response_Control::2      1629176                      
system.ruby.network.routers5.throttle1.msg_count.Writeback_Data::0        22424                      
system.ruby.network.routers5.throttle1.msg_count.Writeback_Data::1       476671                      
system.ruby.network.routers5.throttle1.msg_count.Writeback_Control::0      1118946                      
system.ruby.network.routers5.throttle1.msg_bytes.Control::0     13065024                      
system.ruby.network.routers5.throttle1.msg_bytes.Response_Data::1       109584                      
system.ruby.network.routers5.throttle1.msg_bytes.Response_Control::1        89560                      
system.ruby.network.routers5.throttle1.msg_bytes.Response_Control::2     13033408                      
system.ruby.network.routers5.throttle1.msg_bytes.Writeback_Data::0      1614528                      
system.ruby.network.routers5.throttle1.msg_bytes.Writeback_Data::1     34320312                      
system.ruby.network.routers5.throttle1.msg_bytes.Writeback_Control::0      8951568                      
system.ruby.network.routers6.throttle0.link_utilization     0.708845                      
system.ruby.network.routers6.throttle0.msg_count.Control::0      5384887                      
system.ruby.network.routers6.throttle0.msg_count.Response_Data::1      3935797                      
system.ruby.network.routers6.throttle0.msg_count.Response_Control::1      3932378                      
system.ruby.network.routers6.throttle0.msg_count.Response_Control::2      5378072                      
system.ruby.network.routers6.throttle0.msg_count.Writeback_Data::0      1141635                      
system.ruby.network.routers6.throttle0.msg_count.Writeback_Data::1      2232619                      
system.ruby.network.routers6.throttle0.msg_count.Writeback_Control::0      1980907                      
system.ruby.network.routers6.throttle0.msg_bytes.Control::0     43079096                      
system.ruby.network.routers6.throttle0.msg_bytes.Response_Data::1    283377384                      
system.ruby.network.routers6.throttle0.msg_bytes.Response_Control::1     31459024                      
system.ruby.network.routers6.throttle0.msg_bytes.Response_Control::2     43024576                      
system.ruby.network.routers6.throttle0.msg_bytes.Writeback_Data::0     82197720                      
system.ruby.network.routers6.throttle0.msg_bytes.Writeback_Data::1    160748568                      
system.ruby.network.routers6.throttle0.msg_bytes.Writeback_Control::0     15847256                      
system.ruby.network.routers6.throttle1.link_utilization     0.680688                      
system.ruby.network.routers6.throttle1.msg_count.Control::0      3934134                      
system.ruby.network.routers6.throttle1.msg_count.Request_Control::2      2251308                      
system.ruby.network.routers6.throttle1.msg_count.Response_Data::1      7573273                      
system.ruby.network.routers6.throttle1.msg_count.Response_Control::1      4846079                      
system.ruby.network.routers6.throttle1.msg_bytes.Control::0     31473072                      
system.ruby.network.routers6.throttle1.msg_bytes.Request_Control::2     18010464                      
system.ruby.network.routers6.throttle1.msg_bytes.Response_Data::1    545275656                      
system.ruby.network.routers6.throttle1.msg_bytes.Response_Control::1     38768632                      
system.ruby.network.routers7.throttle0.link_utilization     0.218058                      
system.ruby.network.routers7.throttle0.msg_count.Control::0      3934134                      
system.ruby.network.routers7.throttle0.msg_count.Response_Data::1      2190127                      
system.ruby.network.routers7.throttle0.msg_count.Response_Control::1      1723527                      
system.ruby.network.routers7.throttle0.msg_bytes.Control::0     31473072                      
system.ruby.network.routers7.throttle0.msg_bytes.Response_Data::1    157689144                      
system.ruby.network.routers7.throttle0.msg_bytes.Response_Control::1     13788216                      
system.ruby.network.routers7.throttle1.link_utilization     0.337984                      
system.ruby.network.routers7.throttle1.msg_count.Response_Data::1      3934134                      
system.ruby.network.routers7.throttle1.msg_count.Response_Control::1      3913654                      
system.ruby.network.routers7.throttle1.msg_bytes.Response_Data::1    283257648                      
system.ruby.network.routers7.throttle1.msg_bytes.Response_Control::1     31309232                      
system.ruby.network.routers8.throttle0.link_utilization            0                      
system.ruby.network.routers8.throttle1.link_utilization            0                      
system.ruby.network.routers8.throttle2.link_utilization            0                      
system.ruby.network.routers8.throttle3.link_utilization     0.187177                      
system.ruby.network.routers8.throttle3.msg_count.Request_Control::2      1079181                      
system.ruby.network.routers8.throttle3.msg_count.Response_Data::1      2177677                      
system.ruby.network.routers8.throttle3.msg_count.Response_Control::1      1097757                      
system.ruby.network.routers8.throttle3.msg_bytes.Request_Control::2      8633448                      
system.ruby.network.routers8.throttle3.msg_bytes.Response_Data::1    156792744                      
system.ruby.network.routers8.throttle3.msg_bytes.Response_Control::1      8782056                      
system.ruby.network.routers8.throttle4.link_utilization     0.135253                      
system.ruby.network.routers8.throttle4.msg_count.Request_Control::2       685213                      
system.ruby.network.routers8.throttle4.msg_count.Response_Data::1      1574073                      
system.ruby.network.routers8.throttle4.msg_count.Response_Control::1       883434                      
system.ruby.network.routers8.throttle4.msg_bytes.Request_Control::2      5481704                      
system.ruby.network.routers8.throttle4.msg_bytes.Response_Data::1    113333256                      
system.ruby.network.routers8.throttle4.msg_bytes.Response_Control::1      7067472                      
system.ruby.network.routers8.throttle5.link_utilization     0.140349                      
system.ruby.network.routers8.throttle5.msg_count.Request_Control::2       488627                      
system.ruby.network.routers8.throttle5.msg_count.Response_Data::1      1633127                      
system.ruby.network.routers8.throttle5.msg_count.Response_Control::1      1141372                      
system.ruby.network.routers8.throttle5.msg_bytes.Request_Control::2      3909016                      
system.ruby.network.routers8.throttle5.msg_bytes.Response_Data::1    117585144                      
system.ruby.network.routers8.throttle5.msg_bytes.Response_Control::1      9130976                      
system.ruby.network.routers8.throttle6.link_utilization     0.708845                      
system.ruby.network.routers8.throttle6.msg_count.Control::0      5384887                      
system.ruby.network.routers8.throttle6.msg_count.Response_Data::1      3935797                      
system.ruby.network.routers8.throttle6.msg_count.Response_Control::1      3932378                      
system.ruby.network.routers8.throttle6.msg_count.Response_Control::2      5378072                      
system.ruby.network.routers8.throttle6.msg_count.Writeback_Data::0      1141635                      
system.ruby.network.routers8.throttle6.msg_count.Writeback_Data::1      2232619                      
system.ruby.network.routers8.throttle6.msg_count.Writeback_Control::0      1980907                      
system.ruby.network.routers8.throttle6.msg_bytes.Control::0     43079096                      
system.ruby.network.routers8.throttle6.msg_bytes.Response_Data::1    283377384                      
system.ruby.network.routers8.throttle6.msg_bytes.Response_Control::1     31459024                      
system.ruby.network.routers8.throttle6.msg_bytes.Response_Control::2     43024576                      
system.ruby.network.routers8.throttle6.msg_bytes.Writeback_Data::0     82197720                      
system.ruby.network.routers8.throttle6.msg_bytes.Writeback_Data::1    160748568                      
system.ruby.network.routers8.throttle6.msg_bytes.Writeback_Control::0     15847256                      
system.ruby.network.routers8.throttle7.link_utilization     0.218058                      
system.ruby.network.routers8.throttle7.msg_count.Control::0      3934134                      
system.ruby.network.routers8.throttle7.msg_count.Response_Data::1      2190127                      
system.ruby.network.routers8.throttle7.msg_count.Response_Control::1      1723527                      
system.ruby.network.routers8.throttle7.msg_bytes.Control::0     31473072                      
system.ruby.network.routers8.throttle7.msg_bytes.Response_Data::1    157689144                      
system.ruby.network.routers8.throttle7.msg_bytes.Response_Control::1     13788216                      
system.ruby.delayVCHist.vnet_0::bucket_size            8                       # delay histogram for vnet_0
system.ruby.delayVCHist.vnet_0::max_bucket           79                       # delay histogram for vnet_0
system.ruby.delayVCHist.vnet_0::samples      13885501                       # delay histogram for vnet_0
system.ruby.delayVCHist.vnet_0::mean         0.703558                       # delay histogram for vnet_0
system.ruby.delayVCHist.vnet_0::stdev        2.257294                       # delay histogram for vnet_0
system.ruby.delayVCHist.vnet_0           |    12717409     91.59%     91.59% |     1165953      8.40%     99.98% |        2022      0.01%    100.00% |          10      0.00%    100.00% |          19      0.00%    100.00% |          58      0.00%    100.00% |          25      0.00%    100.00% |           4      0.00%    100.00% |           1      0.00%    100.00% |           0      0.00%    100.00% # delay histogram for vnet_0
system.ruby.delayVCHist.vnet_0::total        13885501                       # delay histogram for vnet_0
system.ruby.delayVCHist.vnet_1::bucket_size            2                       # delay histogram for vnet_1
system.ruby.delayVCHist.vnet_1::max_bucket           19                       # delay histogram for vnet_1
system.ruby.delayVCHist.vnet_1::samples      24395791                       # delay histogram for vnet_1
system.ruby.delayVCHist.vnet_1::mean         0.014428                       # delay histogram for vnet_1
system.ruby.delayVCHist.vnet_1::stdev        0.285299                       # delay histogram for vnet_1
system.ruby.delayVCHist.vnet_1           |    24318543     99.68%     99.68% |       24961      0.10%     99.79% |       20877      0.09%     99.87% |       16784      0.07%     99.94% |       14298      0.06%    100.00% |         291      0.00%    100.00% |           8      0.00%    100.00% |           1      0.00%    100.00% |          28      0.00%    100.00% |           0      0.00%    100.00% # delay histogram for vnet_1
system.ruby.delayVCHist.vnet_1::total        24395791                       # delay histogram for vnet_1
system.ruby.delayVCHist.vnet_2::bucket_size            2                       # delay histogram for vnet_2
system.ruby.delayVCHist.vnet_2::max_bucket           19                       # delay histogram for vnet_2
system.ruby.delayVCHist.vnet_2::samples       2325913                       # delay histogram for vnet_2
system.ruby.delayVCHist.vnet_2::mean         0.042972                       # delay histogram for vnet_2
system.ruby.delayVCHist.vnet_2::stdev        0.461696                       # delay histogram for vnet_2
system.ruby.delayVCHist.vnet_2           |     2305812     99.14%     99.14% |         224      0.01%     99.15% |       19863      0.85%    100.00% |           3      0.00%    100.00% |           0      0.00%    100.00% |           0      0.00%    100.00% |           0      0.00%    100.00% |          11      0.00%    100.00% |           0      0.00%    100.00% |           0      0.00%    100.00% # delay histogram for vnet_2
system.ruby.delayVCHist.vnet_2::total         2325913                       # delay histogram for vnet_2
system.ruby.LD.latency_hist::bucket_size           16                      
system.ruby.LD.latency_hist::max_bucket           159                      
system.ruby.LD.latency_hist::samples        441712360                      
system.ruby.LD.latency_hist::mean            1.318412                      
system.ruby.LD.latency_hist::gmean           1.028315                      
system.ruby.LD.latency_hist::stdev           4.108076                      
system.ruby.LD.latency_hist              |   438517333     99.28%     99.28% |     1441812      0.33%     99.60% |        3140      0.00%     99.60% |     1584008      0.36%     99.96% |      138064      0.03%     99.99% |       27326      0.01%    100.00% |         601      0.00%    100.00% |          65      0.00%    100.00% |          11      0.00%    100.00% |           0      0.00%    100.00%
system.ruby.LD.latency_hist::total          441712360                      
system.ruby.LD.hit_latency_hist::bucket_size           16                      
system.ruby.LD.hit_latency_hist::max_bucket          159                      
system.ruby.LD.hit_latency_hist::samples    441712360                      
system.ruby.LD.hit_latency_hist::mean        1.318412                      
system.ruby.LD.hit_latency_hist::gmean       1.028315                      
system.ruby.LD.hit_latency_hist::stdev       4.108076                      
system.ruby.LD.hit_latency_hist          |   438517333     99.28%     99.28% |     1441812      0.33%     99.60% |        3140      0.00%     99.60% |     1584008      0.36%     99.96% |      138064      0.03%     99.99% |       27326      0.01%    100.00% |         601      0.00%    100.00% |          65      0.00%    100.00% |          11      0.00%    100.00% |           0      0.00%    100.00%
system.ruby.LD.hit_latency_hist::total      441712360                      
system.ruby.ST.latency_hist::bucket_size           16                      
system.ruby.ST.latency_hist::max_bucket           159                      
system.ruby.ST.latency_hist::samples        228533625                      
system.ruby.ST.latency_hist::mean            1.717742                      
system.ruby.ST.latency_hist::gmean           1.042136                      
system.ruby.ST.latency_hist::stdev           7.394786                      
system.ruby.ST.latency_hist              |   226350876     99.04%     99.04% |         483      0.00%     99.05% |           4      0.00%     99.05% |      532427      0.23%     99.28% |      567286      0.25%     99.53% |     1066776      0.47%     99.99% |       15730      0.01%    100.00% |          42      0.00%    100.00% |           1      0.00%    100.00% |           0      0.00%    100.00%
system.ruby.ST.latency_hist::total          228533625                      
system.ruby.ST.hit_latency_hist::bucket_size           16                      
system.ruby.ST.hit_latency_hist::max_bucket          159                      
system.ruby.ST.hit_latency_hist::samples    228533625                      
system.ruby.ST.hit_latency_hist::mean        1.717742                      
system.ruby.ST.hit_latency_hist::gmean       1.042136                      
system.ruby.ST.hit_latency_hist::stdev       7.394786                      
system.ruby.ST.hit_latency_hist          |   226350876     99.04%     99.04% |         483      0.00%     99.05% |           4      0.00%     99.05% |      532427      0.23%     99.28% |      567286      0.25%     99.53% |     1066776      0.47%     99.99% |       15730      0.01%    100.00% |          42      0.00%    100.00% |           1      0.00%    100.00% |           0      0.00%    100.00%
system.ruby.ST.hit_latency_hist::total      228533625                      
system.ruby.IFETCH.latency_hist::bucket_size           16                      
system.ruby.IFETCH.latency_hist::max_bucket          159                      
system.ruby.IFETCH.latency_hist::samples   2261325633                      
system.ruby.IFETCH.latency_hist::mean        1.000101                      
system.ruby.IFETCH.latency_hist::gmean       1.000010                      
system.ruby.IFETCH.latency_hist::stdev       0.067482                      
system.ruby.IFETCH.latency_hist          |  2261318780    100.00%    100.00% |        4999      0.00%    100.00% |          29      0.00%    100.00% |        1362      0.00%    100.00% |         281      0.00%    100.00% |         181      0.00%    100.00% |           1      0.00%    100.00% |           0      0.00%    100.00% |           0      0.00%    100.00% |           0      0.00%    100.00%
system.ruby.IFETCH.latency_hist::total     2261325633                      
system.ruby.IFETCH.hit_latency_hist::bucket_size           16                      
system.ruby.IFETCH.hit_latency_hist::max_bucket          159                      
system.ruby.IFETCH.hit_latency_hist::samples   2261325633                      
system.ruby.IFETCH.hit_latency_hist::mean     1.000101                      
system.ruby.IFETCH.hit_latency_hist::gmean     1.000010                      
system.ruby.IFETCH.hit_latency_hist::stdev     0.067482                      
system.ruby.IFETCH.hit_latency_hist      |  2261318780    100.00%    100.00% |        4999      0.00%    100.00% |          29      0.00%    100.00% |        1362      0.00%    100.00% |         281      0.00%    100.00% |         181      0.00%    100.00% |           1      0.00%    100.00% |           0      0.00%    100.00% |           0      0.00%    100.00% |           0      0.00%    100.00%
system.ruby.IFETCH.hit_latency_hist::total   2261325633                      
system.ruby.RMW_Read.latency_hist::bucket_size           16                      
system.ruby.RMW_Read.latency_hist::max_bucket          159                      
system.ruby.RMW_Read.latency_hist::samples          454                      
system.ruby.RMW_Read.latency_hist::mean      2.440529                      
system.ruby.RMW_Read.latency_hist::gmean     1.109798                      
system.ruby.RMW_Read.latency_hist::stdev     9.245713                      
system.ruby.RMW_Read.latency_hist        |         442     97.36%     97.36% |           3      0.66%     98.02% |           0      0.00%     98.02% |           8      1.76%     99.78% |           0      0.00%     99.78% |           1      0.22%    100.00% |           0      0.00%    100.00% |           0      0.00%    100.00% |           0      0.00%    100.00% |           0      0.00%    100.00%
system.ruby.RMW_Read.latency_hist::total          454                      
system.ruby.RMW_Read.hit_latency_hist::bucket_size           16                      
system.ruby.RMW_Read.hit_latency_hist::max_bucket          159                      
system.ruby.RMW_Read.hit_latency_hist::samples          454                      
system.ruby.RMW_Read.hit_latency_hist::mean     2.440529                      
system.ruby.RMW_Read.hit_latency_hist::gmean     1.109798                      
system.ruby.RMW_Read.hit_latency_hist::stdev     9.245713                      
system.ruby.RMW_Read.hit_latency_hist    |         442     97.36%     97.36% |           3      0.66%     98.02% |           0      0.00%     98.02% |           8      1.76%     99.78% |           0      0.00%     99.78% |           1      0.22%    100.00% |           0      0.00%    100.00% |           0      0.00%    100.00% |           0      0.00%    100.00% |           0      0.00%    100.00%
system.ruby.RMW_Read.hit_latency_hist::total          454                      
system.ruby.Locked_RMW_Read.latency_hist::bucket_size           16                      
system.ruby.Locked_RMW_Read.latency_hist::max_bucket          159                      
system.ruby.Locked_RMW_Read.latency_hist::samples     50718283                      
system.ruby.Locked_RMW_Read.latency_hist::mean     1.000125                      
system.ruby.Locked_RMW_Read.latency_hist::gmean     1.000016                      
system.ruby.Locked_RMW_Read.latency_hist::stdev     0.060889                      
system.ruby.Locked_RMW_Read.latency_hist |    50718037    100.00%    100.00% |         235      0.00%    100.00% |           0      0.00%    100.00% |           6      0.00%    100.00% |           2      0.00%    100.00% |           3      0.00%    100.00% |           0      0.00%    100.00% |           0      0.00%    100.00% |           0      0.00%    100.00% |           0      0.00%    100.00%
system.ruby.Locked_RMW_Read.latency_hist::total     50718283                      
system.ruby.Locked_RMW_Read.hit_latency_hist::bucket_size           16                      
system.ruby.Locked_RMW_Read.hit_latency_hist::max_bucket          159                      
system.ruby.Locked_RMW_Read.hit_latency_hist::samples     50718283                      
system.ruby.Locked_RMW_Read.hit_latency_hist::mean     1.000125                      
system.ruby.Locked_RMW_Read.hit_latency_hist::gmean     1.000016                      
system.ruby.Locked_RMW_Read.hit_latency_hist::stdev     0.060889                      
system.ruby.Locked_RMW_Read.hit_latency_hist |    50718037    100.00%    100.00% |         235      0.00%    100.00% |           0      0.00%    100.00% |           6      0.00%    100.00% |           2      0.00%    100.00% |           3      0.00%    100.00% |           0      0.00%    100.00% |           0      0.00%    100.00% |           0      0.00%    100.00% |           0      0.00%    100.00%
system.ruby.Locked_RMW_Read.hit_latency_hist::total     50718283                      
system.ruby.Locked_RMW_Write.latency_hist::bucket_size            1                      
system.ruby.Locked_RMW_Write.latency_hist::max_bucket            9                      
system.ruby.Locked_RMW_Write.latency_hist::samples     50718283                      
system.ruby.Locked_RMW_Write.latency_hist::mean            1                      
system.ruby.Locked_RMW_Write.latency_hist::gmean            1                      
system.ruby.Locked_RMW_Write.latency_hist |           0      0.00%      0.00% |    50718283    100.00%    100.00% |           0      0.00%    100.00% |           0      0.00%    100.00% |           0      0.00%    100.00% |           0      0.00%    100.00% |           0      0.00%    100.00% |           0      0.00%    100.00% |           0      0.00%    100.00% |           0      0.00%    100.00%
system.ruby.Locked_RMW_Write.latency_hist::total     50718283                      
system.ruby.Locked_RMW_Write.hit_latency_hist::bucket_size            1                      
system.ruby.Locked_RMW_Write.hit_latency_hist::max_bucket            9                      
system.ruby.Locked_RMW_Write.hit_latency_hist::samples     50718283                      
system.ruby.Locked_RMW_Write.hit_latency_hist::mean            1                      
system.ruby.Locked_RMW_Write.hit_latency_hist::gmean            1                      
system.ruby.Locked_RMW_Write.hit_latency_hist |           0      0.00%      0.00% |    50718283    100.00%    100.00% |           0      0.00%    100.00% |           0      0.00%    100.00% |           0      0.00%    100.00% |           0      0.00%    100.00% |           0      0.00%    100.00% |           0      0.00%    100.00% |           0      0.00%    100.00% |           0      0.00%    100.00%
system.ruby.Locked_RMW_Write.hit_latency_hist::total     50718283                      
system.ruby.Directory_Controller.Fetch        3934134      0.00%      0.00%
system.ruby.Directory_Controller.Data         2190127      0.00%      0.00%
system.ruby.Directory_Controller.Memory_Data      3934134      0.00%      0.00%
system.ruby.Directory_Controller.Memory_Ack      2190127      0.00%      0.00%
system.ruby.Directory_Controller.CleanReplacement      1723527      0.00%      0.00%
system.ruby.Directory_Controller.I.Fetch      3934134      0.00%      0.00%
system.ruby.Directory_Controller.M.Data       2190127      0.00%      0.00%
system.ruby.Directory_Controller.M.CleanReplacement      1723527      0.00%      0.00%
system.ruby.Directory_Controller.IM.Memory_Data      3934134      0.00%      0.00%
system.ruby.Directory_Controller.MI.Memory_Ack      2190127      0.00%      0.00%
system.ruby.L0Cache_Controller.Load      |   384769066     87.11%     87.11% |    28471647      6.45%     93.55% |    28471647      6.45%    100.00%
system.ruby.L0Cache_Controller.Load::total    441712360                      
system.ruby.L0Cache_Controller.Ifetch    |  2112314253     93.41%     93.41% |    74505690      3.29%     96.71% |    74505690      3.29%    100.00%
system.ruby.L0Cache_Controller.Ifetch::total   2261325633                      
system.ruby.L0Cache_Controller.Store     |   329646869     99.90%     99.90% |      161888      0.05%     99.95% |      161888      0.05%    100.00%
system.ruby.L0Cache_Controller.Store::total    329970645                      
system.ruby.L0Cache_Controller.Inv       |        5401      7.41%      7.41% |       30927     42.43%     49.84% |       36564     50.16%    100.00%
system.ruby.L0Cache_Controller.Inv::total        72892                      
system.ruby.L0Cache_Controller.L0_Replacement |     2171702     37.99%     37.99% |     1772123     31.00%     69.00% |     1772159     31.00%    100.00%
system.ruby.L0Cache_Controller.L0_Replacement::total      5715984                      
system.ruby.L0Cache_Controller.Data      |          16      0.16%      0.16% |        4498     45.04%     45.20% |        5472     54.80%    100.00%
system.ruby.L0Cache_Controller.Data::total         9986                      
system.ruby.L0Cache_Controller.Data_Exclusive |     2177784     37.69%     37.69% |     1797719     31.12%     68.81% |     1802068     31.19%    100.00%
system.ruby.L0Cache_Controller.Data_Exclusive::total      5777571                      
system.ruby.L0Cache_Controller.NP.Load   |        1676      0.05%      0.05% |     1795512     49.91%     49.95% |     1800427     50.05%    100.00%
system.ruby.L0Cache_Controller.NP.Load::total      3597615                      
system.ruby.L0Cache_Controller.NP.Ifetch |        3978     57.47%     57.47% |        1213     17.52%     74.99% |        1731     25.01%    100.00%
system.ruby.L0Cache_Controller.NP.Ifetch::total         6922                      
system.ruby.L0Cache_Controller.NP.Store  |     2172138     99.50%     99.50% |        5491      0.25%     99.75% |        5381      0.25%    100.00%
system.ruby.L0Cache_Controller.NP.Store::total      2183010                      
system.ruby.L0Cache_Controller.NP.Inv    |           0      0.00%      0.00% |        1305     52.30%     52.30% |        1190     47.70%    100.00%
system.ruby.L0Cache_Controller.NP.Inv::total         2495                      
system.ruby.L0Cache_Controller.S.Load    |     2521071     25.84%     25.84% |     3736178     38.29%     64.13% |     3500580     35.87%    100.00%
system.ruby.L0Cache_Controller.S.Load::total      9757829                      
system.ruby.L0Cache_Controller.S.Ifetch  |          48      0.00%      0.00% |    74504037     50.00%     50.00% |    74503587     50.00%    100.00%
system.ruby.L0Cache_Controller.S.Ifetch::total    149007672                      
system.ruby.L0Cache_Controller.S.Store   |           8     80.00%     80.00% |           1     10.00%     90.00% |           1     10.00%    100.00%
system.ruby.L0Cache_Controller.S.Store::total           10                      
system.ruby.L0Cache_Controller.S.Inv     |           3      0.04%      0.04% |        3187     42.69%     42.73% |        4276     57.27%    100.00%
system.ruby.L0Cache_Controller.S.Inv::total         7466                      
system.ruby.L0Cache_Controller.S.L0_Replacement |           4      0.16%      0.16% |        1305     52.22%     52.38% |        1190     47.62%    100.00%
system.ruby.L0Cache_Controller.S.L0_Replacement::total         2499                      
system.ruby.L0Cache_Controller.E.Load    |    64053138     58.23%     58.23% |    22859274     20.78%     79.01% |    23090018     20.99%    100.00%
system.ruby.L0Cache_Controller.E.Load::total    110002430                      
system.ruby.L0Cache_Controller.E.Ifetch  |  2112310227    100.00%    100.00% |         440      0.00%    100.00% |         372      0.00%    100.00%
system.ruby.L0Cache_Controller.E.Ifetch::total   2112311039                      
[...]
system.ruby.L0Cache_Controller.IM.Data_Exclusive::total      2183010                      
system.ruby.L0Cache_Controller.SM.Data_Exclusive |           8     80.00%     80.00% |           1     10.00%     90.00% |           1     10.00%    100.00%
system.ruby.L0Cache_Controller.SM.Data_Exclusive::total           10                      
system.ruby.L1Cache_Controller.Load      |        5654      0.16%      0.16% |     1796725     49.85%     50.00% |     1802158     50.00%    100.00%
system.ruby.L1Cache_Controller.Load::total      3604537                      
system.ruby.L1Cache_Controller.Store     |     2172146     99.50%     99.50% |        5492      0.25%     99.75% |        5382      0.25%    100.00%
system.ruby.L1Cache_Controller.Store::total      2183020                      
system.ruby.L1Cache_Controller.WriteBack |     2171698     38.01%     38.01% |     1770818     30.99%     69.00% |     1770969     31.00%    100.00%
system.ruby.L1Cache_Controller.WriteBack::total      5713485                      
system.ruby.L1Cache_Controller.L0_DataAck |        1976     54.84%     54.84% |         778     21.59%     76.44% |         849     23.56%    100.00%
system.ruby.L1Cache_Controller.L0_DataAck::total         3603                      
system.ruby.L1Cache_Controller.Inv       |     1079170     47.93%     47.93% |      684318     30.40%     78.33% |      487866     21.67%    100.00%
system.ruby.L1Cache_Controller.Inv::total      2251354                      
system.ruby.L1Cache_Controller.L0_Invalidate_Own |        8716      8.22%      8.22% |       46900     44.24%     52.46% |       50392     47.54%    100.00%
system.ruby.L1Cache_Controller.L0_Invalidate_Own::total       106008                      
system.ruby.L1Cache_Controller.L0_Invalidate_Else |        2086      5.24%      5.24% |       14954     37.60%     42.84% |       22736     57.16%    100.00%
system.ruby.L1Cache_Controller.L0_Invalidate_Else::total        39776                      
system.ruby.L1Cache_Controller.L1_Replacement |     1097740     35.05%     35.05% |      887526     28.34%     63.39% |     1146592     36.61%    100.00%
system.ruby.L1Cache_Controller.L1_Replacement::total      3131858                      
system.ruby.L1Cache_Controller.Fwd_GETX  |           1     25.00%     25.00% |           3     75.00%    100.00% |           0      0.00%    100.00%
system.ruby.L1Cache_Controller.Fwd_GETX::total            4                      
system.ruby.L1Cache_Controller.Fwd_GETS  |          10      0.60%      0.60% |         892     53.64%     54.24% |         761     45.76%    100.00%
system.ruby.L1Cache_Controller.Fwd_GETS::total         1663                      
system.ruby.L1Cache_Controller.Data_Exclusive |        5539      0.17%      0.17% |     1564953     49.01%     49.18% |     1622910     50.82%    100.00%
system.ruby.L1Cache_Controller.Data_Exclusive::total      3193402                      
system.ruby.L1Cache_Controller.DataS_fromL1 |          11      0.66%      0.66% |         768     46.18%     46.84% |         884     53.16%    100.00%
system.ruby.L1Cache_Controller.DataS_fromL1::total         1663                      
system.ruby.L1Cache_Controller.Data_all_Acks |     2172127     99.19%     99.19% |        8352      0.38%     99.57% |        9333      0.43%    100.00%
system.ruby.L1Cache_Controller.Data_all_Acks::total      2189812                      
system.ruby.L1Cache_Controller.L0_Ack    |        3425      4.94%      4.94% |       30149     43.51%     48.46% |       35715     51.54%    100.00%
system.ruby.L1Cache_Controller.L0_Ack::total        69289                      
system.ruby.L1Cache_Controller.Ack       |           9     81.82%     81.82% |           1      9.09%     90.91% |           1      9.09%    100.00%
system.ruby.L1Cache_Controller.Ack::total           11                      
system.ruby.L1Cache_Controller.Ack_all   |           8     80.00%     80.00% |           1     10.00%     90.00% |           1     10.00%    100.00%
system.ruby.L1Cache_Controller.Ack_all::total           10                      
system.ruby.L1Cache_Controller.WB_Ack    |     1097740     35.16%     35.16% |      883432     28.29%     63.45% |     1141370     36.55%    100.00%
system.ruby.L1Cache_Controller.WB_Ack::total      3122542                      
system.ruby.L1Cache_Controller.NP.Load   |        5552      0.17%      0.17% |     1568582     48.99%     49.16% |     1627746     50.84%    100.00%
system.ruby.L1Cache_Controller.NP.Load::total      3201880                      
system.ruby.L1Cache_Controller.NP.Store  |     2172125     99.50%     99.50% |        5491      0.25%     99.75% |        5381      0.25%    100.00%
system.ruby.L1Cache_Controller.NP.Store::total      2182997                      
system.ruby.L1Cache_Controller.NP.Inv    |           0      0.00%      0.00% |        1294     49.16%     49.16% |        1338     50.84%    100.00%
system.ruby.L1Cache_Controller.NP.Inv::total         2632                      
system.ruby.L1Cache_Controller.I.L1_Replacement |           0      0.00%      0.00% |           2    100.00%    100.00% |           0      0.00%    100.00%
system.ruby.L1Cache_Controller.I.L1_Replacement::total            2                      
system.ruby.L1Cache_Controller.S.Load    |           1    100.00%    100.00% |           0      0.00%    100.00% |           0      0.00%    100.00%
system.ruby.L1Cache_Controller.S.Load::total            1                      
system.ruby.L1Cache_Controller.S.Store   |           8     80.00%     80.00% |           1     10.00%     90.00% |           1     10.00%    100.00%
system.ruby.L1Cache_Controller.S.Store::total           10                      
system.ruby.L1Cache_Controller.S.L0_Invalidate_Own |           0      0.00%      0.00% |        4088     44.50%     44.50% |        5099     55.50%    100.00%
system.ruby.L1Cache_Controller.S.L0_Invalidate_Own::total         9187                      
system.ruby.L1Cache_Controller.S.L0_Invalidate_Else |           3      0.39%      0.39% |         404     52.20%     52.58% |         367     47.42%    100.00%
system.ruby.L1Cache_Controller.S.L0_Invalidate_Else::total          774                      
system.ruby.L1Cache_Controller.SS.Load   |           2      0.13%      0.13% |         869     57.66%     57.80% |         636     42.20%    100.00%
system.ruby.L1Cache_Controller.SS.Load::total         1507                      
system.ruby.L1Cache_Controller.SS.Inv    |          11      1.38%      1.38% |         419     52.51%     53.88% |         368     46.12%    100.00%
system.ruby.L1Cache_Controller.SS.Inv::total          798                      
system.ruby.L1Cache_Controller.SS.L1_Replacement |           0      0.00%      0.00% |        4092     43.93%     43.93% |        5222     56.07%    100.00%
system.ruby.L1Cache_Controller.SS.L1_Replacement::total         9314                      
system.ruby.L1Cache_Controller.E.WriteBack |         847      0.03%      0.03% |     1539589     49.14%     49.16% |     1592899     50.84%    100.00%
system.ruby.L1Cache_Controller.E.WriteBack::total      3133335                      
system.ruby.L1Cache_Controller.E.L0_Invalidate_Own |        3657      8.69%      8.69% |       18587     44.15%     52.84% |       19852     47.16%    100.00%
system.ruby.L1Cache_Controller.E.L0_Invalidate_Own::total        42096                      
system.ruby.L1Cache_Controller.E.L0_Invalidate_Else |         432      2.55%      2.55% |        6361     37.52%     40.07% |       10160     59.93%    100.00%
system.ruby.L1Cache_Controller.E.L0_Invalidate_Else::total        16953                      
system.ruby.L1Cache_Controller.EE.Load   |           5     45.45%     45.45% |           4     36.36%     81.82% |           2     18.18%    100.00%
system.ruby.L1Cache_Controller.EE.Load::total           11                      
system.ruby.L1Cache_Controller.EE.Inv    |         386      2.52%      2.52% |        5430     35.48%     38.00% |        9489     62.00%    100.00%
system.ruby.L1Cache_Controller.EE.Inv::total        15305                      
system.ruby.L1Cache_Controller.EE.L1_Replacement |        2991      7.32%      7.32% |       18346     44.88%     52.20% |       19541     47.80%    100.00%
system.ruby.L1Cache_Controller.EE.L1_Replacement::total        40878                      
system.ruby.L1Cache_Controller.EE.Fwd_GETX |           1     50.00%     50.00% |           1     50.00%    100.00% |           0      0.00%    100.00%
system.ruby.L1Cache_Controller.EE.Fwd_GETX::total            2                      
system.ruby.L1Cache_Controller.EE.Fwd_GETS |           5      0.33%      0.33% |         886     58.02%     58.35% |         636     41.65%    100.00%
system.ruby.L1Cache_Controller.EE.Fwd_GETS::total         1527                      
system.ruby.L1Cache_Controller.M.WriteBack |     2170851     84.14%     84.14% |      231229      8.96%     93.10% |      178070      6.90%    100.00%
system.ruby.L1Cache_Controller.M.WriteBack::total      2580150                      
system.ruby.L1Cache_Controller.M.L0_Invalidate_Own |         701     40.73%     40.73% |         775     45.03%     85.76% |         245     14.24%    100.00%
system.ruby.L1Cache_Controller.M.L0_Invalidate_Own::total         1721                      
system.ruby.L1Cache_Controller.M.L0_Invalidate_Else |         608     28.14%     28.14% |         712     32.95%     61.08% |         841     38.92%    100.00%
system.ruby.L1Cache_Controller.M.L0_Invalidate_Else::total         2161                      
system.ruby.L1Cache_Controller.MM.Load   |          94      0.02%      0.02% |      227270     56.66%     56.68% |      173774     43.32%    100.00%
system.ruby.L1Cache_Controller.MM.Load::total       401138                      
system.ruby.L1Cache_Controller.MM.Store  |          13    100.00%    100.00% |           0      0.00%    100.00% |           0      0.00%    100.00%
system.ruby.L1Cache_Controller.MM.Store::total           13                      
system.ruby.L1Cache_Controller.MM.Inv    |     1078773     48.32%     48.32% |      677175     30.33%     78.65% |      476671     21.35%    100.00%
system.ruby.L1Cache_Controller.MM.Inv::total      2232619                      
system.ruby.L1Cache_Controller.MM.L1_Replacement |     1094749     35.52%     35.52% |      865086     28.07%     63.60% |     1121829     36.40%    100.00%
system.ruby.L1Cache_Controller.MM.L1_Replacement::total      3081664                      
system.ruby.L1Cache_Controller.MM.Fwd_GETX |           0      0.00%      0.00% |           2    100.00%    100.00% |           0      0.00%    100.00%
system.ruby.L1Cache_Controller.MM.Fwd_GETX::total            2                      
system.ruby.L1Cache_Controller.MM.Fwd_GETS |           5      3.68%      3.68% |           6      4.41%      8.09% |         125     91.91%    100.00%
system.ruby.L1Cache_Controller.MM.Fwd_GETS::total          136                      
system.ruby.L1Cache_Controller.IS.Data_Exclusive |        5539      0.17%      0.17% |     1564953     49.01%     49.18% |     1622910     50.82%    100.00%
system.ruby.L1Cache_Controller.IS.Data_Exclusive::total      3193402                      
system.ruby.L1Cache_Controller.IS.DataS_fromL1 |          11      0.66%      0.66% |         768     46.18%     46.84% |         884     53.16%    100.00%
system.ruby.L1Cache_Controller.IS.DataS_fromL1::total         1663                      
system.ruby.L1Cache_Controller.IS.Data_all_Acks |           2      0.03%      0.03% |        2861     41.98%     42.01% |        3952     57.99%    100.00%
system.ruby.L1Cache_Controller.IS.Data_all_Acks::total         6815                      
system.ruby.L1Cache_Controller.IM.Data_all_Acks |     2172125     99.50%     99.50% |        5491      0.25%     99.75% |        5381      0.25%    100.00%
system.ruby.L1Cache_Controller.IM.Data_all_Acks::total      2182997                      
system.ruby.L1Cache_Controller.SM.Ack    |           9     81.82%     81.82% |           1      9.09%     90.91% |           1      9.09%    100.00%
system.ruby.L1Cache_Controller.SM.Ack::total           11                      
system.ruby.L1Cache_Controller.SM.Ack_all |           8     80.00%     80.00% |           1     10.00%     90.00% |           1     10.00%    100.00%
system.ruby.L1Cache_Controller.SM.Ack_all::total           10                      
system.ruby.L1Cache_Controller.M_I.WB_Ack |     1097740     35.16%     35.16% |      883432     28.29%     63.45% |     1141370     36.55%    100.00%
system.ruby.L1Cache_Controller.M_I.WB_Ack::total      3122542                      
system.ruby.L1Cache_Controller.S_IL0.L0_Invalidate_Own |           0      0.00%      0.00% |        4088     44.50%     44.50% |        5099     55.50%    100.00%
system.ruby.L1Cache_Controller.S_IL0.L0_Invalidate_Own::total         9187                      
system.ruby.L1Cache_Controller.S_IL0.L0_Invalidate_Else |           3      0.39%      0.39% |         404     52.20%     52.58% |         367     47.42%    100.00%
system.ruby.L1Cache_Controller.S_IL0.L0_Invalidate_Else::total          774                      
system.ruby.L1Cache_Controller.S_IL0.L0_Ack |           3      0.03%      0.03% |        4492     45.10%     45.13% |        5466     54.87%    100.00%
system.ruby.L1Cache_Controller.S_IL0.L0_Ack::total         9961                      
system.ruby.L1Cache_Controller.E_IL0.L0_DataAck |         701     52.87%     52.87% |         281     21.19%     74.06% |         344     25.94%    100.00%
system.ruby.L1Cache_Controller.E_IL0.L0_DataAck::total         1326                      
system.ruby.L1Cache_Controller.E_IL0.L0_Invalidate_Own |        3657      8.69%      8.69% |       18587     44.15%     52.84% |       19852     47.16%    100.00%
system.ruby.L1Cache_Controller.E_IL0.L0_Invalidate_Own::total        42096                      
system.ruby.L1Cache_Controller.E_IL0.L0_Invalidate_Else |         432      2.55%      2.55% |        6361     37.52%     40.07% |       10160     59.93%    100.00%
system.ruby.L1Cache_Controller.E_IL0.L0_Invalidate_Else::total        16953                      
system.ruby.L1Cache_Controller.E_IL0.L0_Ack |        3388      5.87%      5.87% |       24667     42.73%     48.60% |       29668     51.40%    100.00%
system.ruby.L1Cache_Controller.E_IL0.L0_Ack::total        57723                      
system.ruby.L1Cache_Controller.M_IL0.L0_DataAck |        1275     55.99%     55.99% |         497     21.83%     77.82% |         505     22.18%    100.00%
system.ruby.L1Cache_Controller.M_IL0.L0_DataAck::total         2277                      
system.ruby.L1Cache_Controller.M_IL0.L0_Invalidate_Own |         701     40.73%     40.73% |         775     45.03%     85.76% |         245     14.24%    100.00%
system.ruby.L1Cache_Controller.M_IL0.L0_Invalidate_Own::total         1721                      
system.ruby.L1Cache_Controller.M_IL0.L0_Invalidate_Else |         608     28.14%     28.14% |         712     32.95%     61.08% |         841     38.92%    100.00%
system.ruby.L1Cache_Controller.M_IL0.L0_Invalidate_Else::total         2161                      
system.ruby.L1Cache_Controller.M_IL0.L0_Ack |          34      2.12%      2.12% |         990     61.68%     63.80% |         581     36.20%    100.00%
system.ruby.L1Cache_Controller.M_IL0.L0_Ack::total         1605                      
system.ruby.L2Cache_Controller.L1_GETS        3202131      0.00%      0.00%
system.ruby.L2Cache_Controller.L1_GETX        2183060      0.00%      0.00%
system.ruby.L2Cache_Controller.L1_UPGRADE           10      0.00%      0.00%
system.ruby.L2Cache_Controller.L1_PUTX        3122542      0.00%      0.00%
system.ruby.L2Cache_Controller.L2_Replacement      1105039      0.00%      0.00%
system.ruby.L2Cache_Controller.L2_Replacement_clean      2808615      0.00%      0.00%
system.ruby.L2Cache_Controller.Mem_Data       3934134      0.00%      0.00%
system.ruby.L2Cache_Controller.Mem_Ack        3913654      0.00%      0.00%
system.ruby.L2Cache_Controller.WB_Data        1086660      0.00%      0.00%
system.ruby.L2Cache_Controller.WB_Data_clean      1147622      0.00%      0.00%
system.ruby.L2Cache_Controller.Ack               1712      0.00%      0.00%
system.ruby.L2Cache_Controller.Ack_all          17012      0.00%      0.00%
system.ruby.L2Cache_Controller.Unblock           1663      0.00%      0.00%
system.ruby.L2Cache_Controller.Exclusive_Unblock      5376409      0.00%      0.00%
system.ruby.L2Cache_Controller.NP.L1_GETS      1751853      0.00%      0.00%
system.ruby.L2Cache_Controller.NP.L1_GETX      2182281      0.00%      0.00%
system.ruby.L2Cache_Controller.SS.L1_GETS         6687      0.00%      0.00%
system.ruby.L2Cache_Controller.SS.L1_UPGRADE           10      0.00%      0.00%
system.ruby.L2Cache_Controller.SS.L2_Replacement         1643      0.00%      0.00%
system.ruby.L2Cache_Controller.SS.L2_Replacement_clean           64      0.00%      0.00%
system.ruby.L2Cache_Controller.M.L1_GETS      1441613      0.00%      0.00%
system.ruby.L2Cache_Controller.M.L1_GETX          712      0.00%      0.00%
system.ruby.L2Cache_Controller.M.L2_Replacement      1102375      0.00%      0.00%
system.ruby.L2Cache_Controller.M.L2_Replacement_clean       561648      0.00%      0.00%
system.ruby.L2Cache_Controller.MT.L1_GETS         1663      0.00%      0.00%
system.ruby.L2Cache_Controller.MT.L1_GETX            4      0.00%      0.00%
system.ruby.L2Cache_Controller.MT.L1_PUTX      3122542      0.00%      0.00%
system.ruby.L2Cache_Controller.MT.L2_Replacement         1021      0.00%      0.00%
system.ruby.L2Cache_Controller.MT.L2_Replacement_clean      2246903      0.00%      0.00%
system.ruby.L2Cache_Controller.M_I.L1_GETS          239      0.00%      0.00%
system.ruby.L2Cache_Controller.M_I.L1_GETX           62      0.00%      0.00%
system.ruby.L2Cache_Controller.M_I.Mem_Ack      3913654      0.00%      0.00%
system.ruby.L2Cache_Controller.MT_I.WB_Data           34      0.00%      0.00%
system.ruby.L2Cache_Controller.MT_I.WB_Data_clean          421      0.00%      0.00%
system.ruby.L2Cache_Controller.MT_I.Ack_all          566      0.00%      0.00%
system.ruby.L2Cache_Controller.MCT_I.WB_Data      1085088      0.00%      0.00%
system.ruby.L2Cache_Controller.MCT_I.WB_Data_clean      1147076      0.00%      0.00%
system.ruby.L2Cache_Controller.MCT_I.Ack_all        14739      0.00%      0.00%
system.ruby.L2Cache_Controller.I_I.Ack             65      0.00%      0.00%
system.ruby.L2Cache_Controller.I_I.Ack_all           64      0.00%      0.00%
system.ruby.L2Cache_Controller.S_I.Ack           1647      0.00%      0.00%
system.ruby.L2Cache_Controller.S_I.Ack_all         1643      0.00%      0.00%
system.ruby.L2Cache_Controller.ISS.L1_GETS           64      0.00%      0.00%
system.ruby.L2Cache_Controller.ISS.Mem_Data      1751789      0.00%      0.00%
system.ruby.L2Cache_Controller.IS.Mem_Data           64      0.00%      0.00%
system.ruby.L2Cache_Controller.IM.L1_GETX            1      0.00%      0.00%
system.ruby.L2Cache_Controller.IM.Mem_Data      2182281      0.00%      0.00%
system.ruby.L2Cache_Controller.SS_MB.Exclusive_Unblock           10      0.00%      0.00%
system.ruby.L2Cache_Controller.MT_MB.L1_GETS            9      0.00%      0.00%
system.ruby.L2Cache_Controller.MT_MB.Exclusive_Unblock      5376399      0.00%      0.00%
system.ruby.L2Cache_Controller.MT_IIB.L1_GETS            3      0.00%      0.00%
system.ruby.L2Cache_Controller.MT_IIB.WB_Data         1512      0.00%      0.00%
system.ruby.L2Cache_Controller.MT_IIB.WB_Data_clean          125      0.00%      0.00%
system.ruby.L2Cache_Controller.MT_IIB.Unblock           26      0.00%      0.00%
system.ruby.L2Cache_Controller.MT_IB.WB_Data           26      0.00%      0.00%
system.ruby.L2Cache_Controller.MT_SB.Unblock         1637      0.00%      0.00%

---------- End Simulation Statistics   ----------
