
---------- Begin Simulation Statistics ----------
sim_seconds                                  2.910575                       # Number of seconds simulated
sim_ticks                                2910574906000                       # Number of ticks simulated
final_tick                               2910574906000                       # Number of ticks from beginning of simulation (restored from checkpoints and never reset)
sim_freq                                 1000000000000                       # Frequency of simulated ticks
host_inst_rate                                 140396                       # Simulator instruction rate (inst/s)
host_op_rate                                   388660                       # Simulator op (including micro ops) rate (op/s)
host_tick_rate                              235429758                       # Simulator tick rate (ticks/s)
host_mem_usage                                3367732                       # Number of bytes of host memory used
host_seconds                                 12362.82                       # Real time elapsed on the host
sim_insts                                  1735693706                       # Number of instructions simulated
sim_ops                                    4804932439                       # Number of ops (including micro ops) simulated
system.voltage_domain.voltage                       1                       # Voltage in Volts
system.clk_domain.clock                          1000                       # Clock period in ticks
system.mem_ctrls.bytes_read::ruby.dir_cntrl0    173992704                       # Number of bytes read from this memory
system.mem_ctrls.bytes_read::total          173992704                       # Number of bytes read from this memory
system.mem_ctrls.bytes_written::ruby.dir_cntrl0    135447360                       # Number of bytes written to this memory
system.mem_ctrls.bytes_written::total       135447360                       # Number of bytes written to this memory
system.mem_ctrls.num_reads::ruby.dir_cntrl0      2718636                       # Number of read requests responded to by this memory
system.mem_ctrls.num_reads::total             2718636                       # Number of read requests responded to by this memory
system.mem_ctrls.num_writes::ruby.dir_cntrl0      2116365                       # Number of write requests responded to by this memory
system.mem_ctrls.num_writes::total            2116365                       # Number of write requests responded to by this memory
system.mem_ctrls.bw_read::ruby.dir_cntrl0     59779497                       # Total read bandwidth from this memory (bytes/s)
system.mem_ctrls.bw_read::total              59779497                       # Total read bandwidth from this memory (bytes/s)
system.mem_ctrls.bw_write::ruby.dir_cntrl0     46536291                       # Write bandwidth from this memory (bytes/s)
system.mem_ctrls.bw_write::total             46536291                       # Write bandwidth from this memory (bytes/s)
system.mem_ctrls.bw_total::ruby.dir_cntrl0    106315788                       # Total bandwidth to/from this memory (bytes/s)
system.mem_ctrls.bw_total::total            106315788                       # Total bandwidth to/from this memory (bytes/s)
system.mem_ctrls.memReq                       4835001                       # Total number of memory requests
system.mem_ctrls.memRead                      2718636                       # Number of memory reads
system.mem_ctrls.memWrite                     2116365                       # Number of memory writes
system.mem_ctrls.memRefresh                  35534074                       # Number of memory refreshes
system.mem_ctrls.memWaitCycles               19446501                       # Delay stalled at the head of the bank queue
system.mem_ctrls.memInputQ                        473                       # Delay in the input queue
system.mem_ctrls.memBankQ                       87473                       # Delay behind the head of the bank queue
system.mem_ctrls.totalStalls                 19534447                       # Total number of stall cycles
system.mem_ctrls.stallsPerReq                4.040216                       # Expected number of stall cycles per request
system.mem_ctrls.memBankBusy                 19342801                       # memory stalls due to busy bank
system.mem_ctrls.memBusBusy                     79122                       # memory stalls due to busy bus
system.mem_ctrls.memReadWriteBusy                 473                       # memory stalls due to read write turnaround
system.mem_ctrls.memDataBusBusy                   238                       # memory stalls due to read read turnaround
system.mem_ctrls.memArbWait                     23867                       # memory stalls due to arbitration
system.mem_ctrls.memBankCount            |      151227      3.13%      3.13% |      151258      3.13%      6.26% |      151225      3.13%      9.38% |      151286      3.13%     12.51% |      151020      3.12%     15.64% |      150936      3.12%     18.76% |      151163      3.13%     21.88% |      151086      3.12%     25.01% |      151100      3.13%     28.13% |      151100      3.13%     31.26% |      151084      3.12%     34.38% |      150996      3.12%     37.51% |      151084      3.12%     40.63% |      151130      3.13%     43.76% |      151127      3.13%     46.88% |      151160      3.13%     50.01% |      151301      3.13%     53.14% |      151069      3.12%     56.26% |      151120      3.13%     59.39% |      151150      3.13%     62.52% |      151050      3.12%     65.64% |      150968      3.12%     68.76% |      151096      3.13%     71.89% |      151085      3.12%     75.01% |      150988      3.12%     78.13% |      150945      3.12%     81.26% |      150989      3.12%     84.38% |      151036      3.12%     87.50% |      151073      3.12%     90.63% |      151148      3.13%     93.75% |      150993      3.12%     96.88% |      151008      3.12%    100.00% # Number of accesses per bank
system.mem_ctrls.memBankCount::total          4835001                       # Number of accesses per bank
system.cpu_voltage_domain.voltage                   1                       # Voltage in Volts
system.cpu_clk_domain.clock                       500                       # Clock period in ticks
system.cpu0.apic_clk_domain.clock                8000                       # Clock period in ticks
system.cpu0.workload.num_syscalls                 110                       # Number of system calls
system.cpu0.numCycles                      5821149812                       # number of cpu cycles simulated
system.cpu0.numWorkItemsStarted                     0                       # number of work items this cpu started
system.cpu0.numWorkItemsCompleted                   0                       # number of work items this cpu completed
system.cpu0.committedInsts                 1619539242                       # Number of instructions committed
system.cpu0.committedOps                   4572636049                       # Number of ops (including micro ops) committed
system.cpu0.num_int_alu_accesses           4316452423                       # Number of integer alu accesses
system.cpu0.num_fp_alu_accesses             108341154                       # Number of float alu accesses
system.cpu0.num_func_calls                  152159734                       # number of times a function call or return occured
system.cpu0.num_conditional_control_insts    356901679                       # number of instructions that are conditional controls
system.cpu0.num_int_insts                  4316452423                       # number of integer instructions
system.cpu0.num_fp_insts                    108341154                       # number of float instructions
system.cpu0.num_int_register_reads         9103120889                       # number of times the integer registers were read
system.cpu0.num_int_register_writes        4285323104                       # number of times the integer registers were written
system.cpu0.num_fp_register_reads           174106828                       # number of times the floating registers were read
system.cpu0.num_fp_register_writes           85151978                       # number of times the floating registers were written
system.cpu0.num_cc_register_reads          3656325620                       # number of times the CC registers were read
system.cpu0.num_cc_register_writes         1368570746                       # number of times the CC registers were written
system.cpu0.num_mem_refs                    711678312                       # number of memory refs
system.cpu0.num_load_insts                  433662675                       # Number of load instructions
system.cpu0.num_store_insts                 278015637                       # Number of store instructions
system.cpu0.num_idle_cycles                  0.002000                       # Number of idle cycles
system.cpu0.num_busy_cycles              5821149811.998000                       # Number of busy cycles
system.cpu0.not_idle_fraction                1.000000                       # Percentage of non-idle cycles
system.cpu0.idle_fraction                    0.000000                       # Percentage of idle cycles
system.cpu0.Branches                        582059709                       # Number of branches fetched
system.cpu0.op_class::No_OpClass             88981576      1.95%      1.95% # Class of executed instruction
system.cpu0.op_class::IntAlu               3306788040     72.32%     74.26% # Class of executed instruction
system.cpu0.op_class::IntMult                     349      0.00%     74.26% # Class of executed instruction
system.cpu0.op_class::IntDiv                380036541      8.31%     82.57% # Class of executed instruction
system.cpu0.op_class::FloatAdd               85151231      1.86%     84.44% # Class of executed instruction
system.cpu0.op_class::FloatCmp                      0      0.00%     84.44% # Class of executed instruction
system.cpu0.op_class::FloatCvt                      0      0.00%     84.44% # Class of executed instruction
system.cpu0.op_class::FloatMult                     0      0.00%     84.44% # Class of executed instruction
system.cpu0.op_class::FloatDiv                      0      0.00%     84.44% # Class of executed instruction
system.cpu0.op_class::FloatSqrt                     0      0.00%     84.44% # Class of executed instruction
system.cpu0.op_class::SimdAdd                       0      0.00%     84.44% # Class of executed instruction
system.cpu0.op_class::SimdAddAcc                    0      0.00%     84.44% # Class of executed instruction
system.cpu0.op_class::SimdAlu                       0      0.00%     84.44% # Class of executed instruction
system.cpu0.op_class::SimdCmp                       0      0.00%     84.44% # Class of executed instruction
system.cpu0.op_class::SimdCvt                       0      0.00%     84.44% # Class of executed instruction
system.cpu0.op_class::SimdMisc                      0      0.00%     84.44% # Class of executed instruction
system.cpu0.op_class::SimdMult                      0      0.00%     84.44% # Class of executed instruction
system.cpu0.op_class::SimdMultAcc                   0      0.00%     84.44% # Class of executed instruction
system.cpu0.op_class::SimdShift                     0      0.00%     84.44% # Class of executed instruction
system.cpu0.op_class::SimdShiftAcc                  0      0.00%     84.44% # Class of executed instruction
system.cpu0.op_class::SimdSqrt                      0      0.00%     84.44% # Class of executed instruction
system.cpu0.op_class::SimdFloatAdd                  0      0.00%     84.44% # Class of executed instruction
system.cpu0.op_class::SimdFloatAlu                  0      0.00%     84.44% # Class of executed instruction
system.cpu0.op_class::SimdFloatCmp                  0      0.00%     84.44% # Class of executed instruction
system.cpu0.op_class::SimdFloatCvt                  0      0.00%     84.44% # Class of executed instruction
system.cpu0.op_class::SimdFloatDiv                  0      0.00%     84.44% # Class of executed instruction
system.cpu0.op_class::SimdFloatMisc                 0      0.00%     84.44% # Class of executed instruction
system.cpu0.op_class::SimdFloatMult                 0      0.00%     84.44% # Class of executed instruction
system.cpu0.op_class::SimdFloatMultAcc              0      0.00%     84.44% # Class of executed instruction
system.cpu0.op_class::SimdFloatSqrt                 0      0.00%     84.44% # Class of executed instruction
system.cpu0.op_class::MemRead               433662675      9.48%     93.92% # Class of executed instruction
system.cpu0.op_class::MemWrite              278015637      6.08%    100.00% # Class of executed instruction
system.cpu0.op_class::IprAccess                     0      0.00%    100.00% # Class of executed instruction
system.cpu0.op_class::InstPrefetch                  0      0.00%    100.00% # Class of executed instruction
system.cpu0.op_class::total                4572636049                       # Class of executed instruction
system.cpu1.apic_clk_domain.clock                8000                       # Clock period in ticks
system.cpu1.numCycles                      5820914400                       # number of cpu cycles simulated
system.cpu1.numWorkItemsStarted                     0                       # number of work items this cpu started
system.cpu1.numWorkItemsCompleted                   0                       # number of work items this cpu completed
system.cpu1.committedInsts                   58077232                       # Number of instructions committed
system.cpu1.committedOps                    116148195                       # Number of ops (including micro ops) committed
system.cpu1.num_int_alu_accesses             87175319                       # Number of integer alu accesses
system.cpu1.num_fp_alu_accesses              56894279                       # Number of float alu accesses
system.cpu1.num_func_calls                     161815                       # number of times a function call or return occured
system.cpu1.num_conditional_control_insts      7134452                       # number of instructions that are conditional controls
system.cpu1.num_int_insts                    87175319                       # number of integer instructions
system.cpu1.num_fp_insts                     56894279                       # number of float instructions
system.cpu1.num_int_register_reads          153196448                       # number of times the integer registers were read
system.cpu1.num_int_register_writes          52032168                       # number of times the integer registers were written
system.cpu1.num_fp_register_reads            86190677                       # number of times the floating registers were read
system.cpu1.num_fp_register_writes           56813392                       # number of times the floating registers were written
system.cpu1.num_cc_register_reads            42887640                       # number of times the CC registers were read
system.cpu1.num_cc_register_writes           42862530                       # number of times the CC registers were written
system.cpu1.num_mem_refs                     28338623                       # number of memory refs
system.cpu1.num_load_insts                   28176742                       # Number of load instructions
system.cpu1.num_store_insts                    161881                       # Number of store instructions
system.cpu1.num_idle_cycles              5550418967.496258                       # Number of idle cycles
system.cpu1.num_busy_cycles              270495432.503742                       # Number of busy cycles
system.cpu1.not_idle_fraction                0.046470                       # Percentage of non-idle cycles
system.cpu1.idle_fraction                    0.953530                       # Percentage of idle cycles
system.cpu1.Branches                          7383422                       # Number of branches fetched
system.cpu1.op_class::No_OpClass                    2      0.00%      0.00% # Class of executed instruction
system.cpu1.op_class::IntAlu                 58594024     50.45%     50.45% # Class of executed instruction
system.cpu1.op_class::IntMult                  242657      0.21%     50.66% # Class of executed instruction
system.cpu1.op_class::IntDiv                       14      0.00%     50.66% # Class of executed instruction
system.cpu1.op_class::FloatAdd               28972875     24.94%     75.60% # Class of executed instruction
system.cpu1.op_class::FloatCmp                      0      0.00%     75.60% # Class of executed instruction
system.cpu1.op_class::FloatCvt                      0      0.00%     75.60% # Class of executed instruction
system.cpu1.op_class::FloatMult                     0      0.00%     75.60% # Class of executed instruction
system.cpu1.op_class::FloatDiv                      0      0.00%     75.60% # Class of executed instruction
system.cpu1.op_class::FloatSqrt                     0      0.00%     75.60% # Class of executed instruction
system.cpu1.op_class::SimdAdd                       0      0.00%     75.60% # Class of executed instruction
system.cpu1.op_class::SimdAddAcc                    0      0.00%     75.60% # Class of executed instruction
system.cpu1.op_class::SimdAlu                       0      0.00%     75.60% # Class of executed instruction
system.cpu1.op_class::SimdCmp                       0      0.00%     75.60% # Class of executed instruction
system.cpu1.op_class::SimdCvt                       0      0.00%     75.60% # Class of executed instruction
system.cpu1.op_class::SimdMisc                      0      0.00%     75.60% # Class of executed instruction
system.cpu1.op_class::SimdMult                      0      0.00%     75.60% # Class of executed instruction
system.cpu1.op_class::SimdMultAcc                   0      0.00%     75.60% # Class of executed instruction
system.cpu1.op_class::SimdShift                     0      0.00%     75.60% # Class of executed instruction
system.cpu1.op_class::SimdShiftAcc                  0      0.00%     75.60% # Class of executed instruction
system.cpu1.op_class::SimdSqrt                      0      0.00%     75.60% # Class of executed instruction
system.cpu1.op_class::SimdFloatAdd                  0      0.00%     75.60% # Class of executed instruction
system.cpu1.op_class::SimdFloatAlu                  0      0.00%     75.60% # Class of executed instruction
system.cpu1.op_class::SimdFloatCmp                  0      0.00%     75.60% # Class of executed instruction
system.cpu1.op_class::SimdFloatCvt                  0      0.00%     75.60% # Class of executed instruction
system.cpu1.op_class::SimdFloatDiv                  0      0.00%     75.60% # Class of executed instruction
system.cpu1.op_class::SimdFloatMisc                 0      0.00%     75.60% # Class of executed instruction
system.cpu1.op_class::SimdFloatMult                 0      0.00%     75.60% # Class of executed instruction
system.cpu1.op_class::SimdFloatMultAcc              0      0.00%     75.60% # Class of executed instruction
system.cpu1.op_class::SimdFloatSqrt                 0      0.00%     75.60% # Class of executed instruction
system.cpu1.op_class::MemRead                28176742     24.26%     99.86% # Class of executed instruction
system.cpu1.op_class::MemWrite                 161881      0.14%    100.00% # Class of executed instruction
system.cpu1.op_class::IprAccess                     0      0.00%    100.00% # Class of executed instruction
system.cpu1.op_class::InstPrefetch                  0      0.00%    100.00% # Class of executed instruction
system.cpu1.op_class::total                 116148195                       # Class of executed instruction
system.cpu2.apic_clk_domain.clock                8000                       # Clock period in ticks
system.cpu2.numCycles                      5820914424                       # number of cpu cycles simulated
system.cpu2.numWorkItemsStarted                     0                       # number of work items this cpu started
system.cpu2.numWorkItemsCompleted                   0                       # number of work items this cpu completed
system.cpu2.committedInsts                   58077232                       # Number of instructions committed
system.cpu2.committedOps                    116148195                       # Number of ops (including micro ops) committed
system.cpu2.num_int_alu_accesses             87175319                       # Number of integer alu accesses
system.cpu2.num_fp_alu_accesses              56894279                       # Number of float alu accesses
system.cpu2.num_func_calls                     161815                       # number of times a function call or return occured
system.cpu2.num_conditional_control_insts      7134452                       # number of instructions that are conditional controls
system.cpu2.num_int_insts                    87175319                       # number of integer instructions
system.cpu2.num_fp_insts                     56894279                       # number of float instructions
system.cpu2.num_int_register_reads          153196448                       # number of times the integer registers were read
system.cpu2.num_int_register_writes          52032168                       # number of times the integer registers were written
system.cpu2.num_fp_register_reads            86190677                       # number of times the floating registers were read
system.cpu2.num_fp_register_writes           56813392                       # number of times the floating registers were written
system.cpu2.num_cc_register_reads            42887640                       # number of times the CC registers were read
system.cpu2.num_cc_register_writes           42862530                       # number of times the CC registers were written
system.cpu2.num_mem_refs                     28338623                       # number of memory refs
system.cpu2.num_load_insts                   28176742                       # Number of load instructions
system.cpu2.num_store_insts                    161881                       # Number of store instructions
system.cpu2.num_idle_cycles              5550419486.360931                       # Number of idle cycles
system.cpu2.num_busy_cycles              270494937.639068                       # Number of busy cycles
system.cpu2.not_idle_fraction                0.046469                       # Percentage of non-idle cycles
system.cpu2.idle_fraction                    0.953531                       # Percentage of idle cycles
system.cpu2.Branches                          7383422                       # Number of branches fetched
system.cpu2.op_class::No_OpClass                    2      0.00%      0.00% # Class of executed instruction
system.cpu2.op_class::IntAlu                 58594024     50.45%     50.45% # Class of executed instruction
system.cpu2.op_class::IntMult                  242657      0.21%     50.66% # Class of executed instruction
system.cpu2.op_class::IntDiv                       14      0.00%     50.66% # Class of executed instruction
system.cpu2.op_class::FloatAdd               28972875     24.94%     75.60% # Class of executed instruction
system.cpu2.op_class::FloatCmp                      0      0.00%     75.60% # Class of executed instruction
system.cpu2.op_class::FloatCvt                      0      0.00%     75.60% # Class of executed instruction
system.cpu2.op_class::FloatMult                     0      0.00%     75.60% # Class of executed instruction
system.cpu2.op_class::FloatDiv                      0      0.00%     75.60% # Class of executed instruction
system.cpu2.op_class::FloatSqrt                     0      0.00%     75.60% # Class of executed instruction
system.cpu2.op_class::SimdAdd                       0      0.00%     75.60% # Class of executed instruction
system.cpu2.op_class::SimdAddAcc                    0      0.00%     75.60% # Class of executed instruction
system.cpu2.op_class::SimdAlu                       0      0.00%     75.60% # Class of executed instruction
system.cpu2.op_class::SimdCmp                       0      0.00%     75.60% # Class of executed instruction
system.cpu2.op_class::SimdCvt                       0      0.00%     75.60% # Class of executed instruction
system.cpu2.op_class::SimdMisc                      0      0.00%     75.60% # Class of executed instruction
system.cpu2.op_class::SimdMult                      0      0.00%     75.60% # Class of executed instruction
system.cpu2.op_class::SimdMultAcc                   0      0.00%     75.60% # Class of executed instruction
system.cpu2.op_class::SimdShift                     0      0.00%     75.60% # Class of executed instruction
system.cpu2.op_class::SimdShiftAcc                  0      0.00%     75.60% # Class of executed instruction
system.cpu2.op_class::SimdSqrt                      0      0.00%     75.60% # Class of executed instruction
system.cpu2.op_class::SimdFloatAdd                  0      0.00%     75.60% # Class of executed instruction
system.cpu2.op_class::SimdFloatAlu                  0      0.00%     75.60% # Class of executed instruction
system.cpu2.op_class::SimdFloatCmp                  0      0.00%     75.60% # Class of executed instruction
system.cpu2.op_class::SimdFloatCvt                  0      0.00%     75.60% # Class of executed instruction
system.cpu2.op_class::SimdFloatDiv                  0      0.00%     75.60% # Class of executed instruction
system.cpu2.op_class::SimdFloatMisc                 0      0.00%     75.60% # Class of executed instruction
system.cpu2.op_class::SimdFloatMult                 0      0.00%     75.60% # Class of executed instruction
system.cpu2.op_class::SimdFloatMultAcc              0      0.00%     75.60% # Class of executed instruction
system.cpu2.op_class::SimdFloatSqrt                 0      0.00%     75.60% # Class of executed instruction
system.cpu2.op_class::MemRead                28176742     24.26%     99.86% # Class of executed instruction
system.cpu2.op_class::MemWrite                 161881      0.14%    100.00% # Class of executed instruction
system.cpu2.op_class::IprAccess                     0      0.00%    100.00% # Class of executed instruction
system.cpu2.op_class::InstPrefetch                  0      0.00%    100.00% # Class of executed instruction
system.cpu2.op_class::total                 116148195                       # Class of executed instruction
system.ruby.clk_domain.clock                      500                       # Clock period in ticks
system.ruby.delayHist::bucket_size                 16                       # delay histogram for all message
system.ruby.delayHist::max_bucket                 159                       # delay histogram for all message
system.ruby.delayHist::samples               37325026                       # delay histogram for all message
system.ruby.delayHist::mean                  0.499452                       # delay histogram for all message
system.ruby.delayHist::stdev                 1.934406                       # delay histogram for all message
system.ruby.delayHist                    |    37323510    100.00%    100.00% |        1512      0.00%    100.00% |           3      0.00%    100.00% |           0      0.00%    100.00% |           0      0.00%    100.00% |           1      0.00%    100.00% |           0      0.00%    100.00% |           0      0.00%    100.00% |           0      0.00%    100.00% |           0      0.00%    100.00% # delay histogram for all message
system.ruby.delayHist::total                 37325026                       # delay histogram for all message
system.ruby.outstanding_req_hist::bucket_size            1                      
system.ruby.outstanding_req_hist::max_bucket            9                      
system.ruby.outstanding_req_hist::samples   3024795967                      
system.ruby.outstanding_req_hist::mean       1.000195                      
system.ruby.outstanding_req_hist::gmean      1.000135                      
system.ruby.outstanding_req_hist::stdev      0.013964                      
system.ruby.outstanding_req_hist         |           0      0.00%      0.00% |  3024206079     99.98%     99.98% |      589888      0.02%    100.00% |           0      0.00%    100.00% |           0      0.00%    100.00% |           0      0.00%    100.00% |           0      0.00%    100.00% |           0      0.00%    100.00% |           0      0.00%    100.00% |           0      0.00%    100.00%
system.ruby.outstanding_req_hist::total    3024795967                      
system.ruby.latency_hist::bucket_size              16                      
system.ruby.latency_hist::max_bucket              159                      
system.ruby.latency_hist::samples          3024795967                      
system.ruby.latency_hist::mean               1.103629                      
system.ruby.latency_hist::gmean              1.007201                      
system.ruby.latency_hist::stdev              2.768066                      
system.ruby.latency_hist                 |  3019301783     99.82%     99.82% |     2244349      0.07%     99.89% |       48313      0.00%     99.89% |       35356      0.00%     99.90% |      843783      0.03%     99.92% |     2289097      0.08%    100.00% |       30422      0.00%    100.00% |        2845      0.00%    100.00% |          17      0.00%    100.00% |           2      0.00%    100.00%
system.ruby.latency_hist::total            3024795967                      
system.ruby.hit_latency_hist::bucket_size           16                      
system.ruby.hit_latency_hist::max_bucket          159                      
system.ruby.hit_latency_hist::samples      3024795967                      
system.ruby.hit_latency_hist::mean           1.103629                      
system.ruby.hit_latency_hist::gmean          1.007201                      
system.ruby.hit_latency_hist::stdev          2.768066                      
system.ruby.hit_latency_hist             |  3019301783     99.82%     99.82% |     2244349      0.07%     99.89% |       48313      0.00%     99.89% |       35356      0.00%     99.90% |      843783      0.03%     99.92% |     2289097      0.08%    100.00% |       30422      0.00%    100.00% |        2845      0.00%    100.00% |          17      0.00%    100.00% |           2      0.00%    100.00%
system.ruby.hit_latency_hist::total        3024795967                      
system.ruby.l0_cntrl0.Dcache.demand_hits    709502588                       # Number of cache demand hits
system.ruby.l0_cntrl0.Dcache.demand_misses      2175788                       # Number of cache demand misses
system.ruby.l0_cntrl0.Dcache.demand_accesses    711678376                       # Number of cache demand accesses
system.ruby.l0_cntrl0.Icache.demand_hits   2106832516                       # Number of cache demand hits
system.ruby.l0_cntrl0.Icache.demand_misses         6625                       # Number of cache demand misses
system.ruby.l0_cntrl0.Icache.demand_accesses   2106839141                       # Number of cache demand accesses
system.ruby.l0_cntrl0.Zcache.demand_hits            0                       # Number of cache demand hits
system.ruby.l0_cntrl0.Zcache.demand_misses            0                       # Number of cache demand misses
system.ruby.l0_cntrl0.Zcache.demand_accesses            0                       # Number of cache demand accesses
system.ruby.l0_cntrl1.Dcache.demand_hits     26819011                       # Number of cache demand hits
system.ruby.l0_cntrl1.Dcache.demand_misses      1814524                       # Number of cache demand misses
system.ruby.l0_cntrl1.Dcache.demand_accesses     28633535                       # Number of cache demand accesses
system.ruby.l0_cntrl1.Icache.demand_hits     74503510                       # Number of cache demand hits
system.ruby.l0_cntrl1.Icache.demand_misses         2180                       # Number of cache demand misses
system.ruby.l0_cntrl1.Icache.demand_accesses     74505690                       # Number of cache demand accesses
system.ruby.l0_cntrl1.Zcache.demand_hits            0                       # Number of cache demand hits
system.ruby.l0_cntrl1.Zcache.demand_misses            0                       # Number of cache demand misses
system.ruby.l0_cntrl1.Zcache.demand_accesses            0                       # Number of cache demand accesses
system.ruby.l0_cntrl2.Dcache.demand_hits     26822558                       # Number of cache demand hits
system.ruby.l0_cntrl2.Dcache.demand_misses      1810977                       # Number of cache demand misses
system.ruby.l0_cntrl2.Dcache.demand_accesses     28633535                       # Number of cache demand accesses
system.ruby.l0_cntrl2.Icache.demand_hits     74503512                       # Number of cache demand hits
system.ruby.l0_cntrl2.Icache.demand_misses         2178                       # Number of cache demand misses
system.ruby.l0_cntrl2.Icache.demand_accesses     74505690                       # Number of cache demand accesses
system.ruby.l0_cntrl2.Zcache.demand_hits            0                       # Number of cache demand hits
system.ruby.l0_cntrl2.Zcache.demand_misses            0                       # Number of cache demand misses
system.ruby.l0_cntrl2.Zcache.demand_accesses            0                       # Number of cache demand accesses
system.ruby.l1_cntrl0.cache.demand_hits           131                       # Number of cache demand hits
system.ruby.l1_cntrl0.cache.demand_misses      2182282                       # Number of cache demand misses
system.ruby.l1_cntrl0.cache.demand_accesses      2182413                       # Number of cache demand accesses
system.ruby.l1_cntrl1.cache.demand_hits        162852                       # Number of cache demand hits
system.ruby.l1_cntrl1.cache.demand_misses      1653852                       # Number of cache demand misses
system.ruby.l1_cntrl1.cache.demand_accesses      1816704                       # Number of cache demand accesses
system.ruby.l1_cntrl2.cache.demand_hits        155105                       # Number of cache demand hits
system.ruby.l1_cntrl2.cache.demand_misses      1658050                       # Number of cache demand misses
system.ruby.l1_cntrl2.cache.demand_accesses      1813155                       # Number of cache demand accesses
system.ruby.l2_cntrl0.L2cache.demand_hits      2244971                       # Number of cache demand hits
system.ruby.l2_cntrl0.L2cache.demand_misses      3249213                       # Number of cache demand misses
system.ruby.l2_cntrl0.L2cache.demand_accesses      5494184                       # Number of cache demand accesses
system.ruby.l2_cntrl0.fully_busy_cycles           454                       # cycles for which number of transistions == max transitions
system.ruby.memctrl_clk_domain.clock             1500                       # Clock period in ticks
system.ruby.network.routers0.percent_links_utilized            0                      
system.ruby.network.routers1.percent_links_utilized            0                      
system.ruby.network.routers2.percent_links_utilized            0                      
system.ruby.network.routers3.percent_links_utilized     0.196762                      
system.ruby.network.routers3.msg_count.Control::0      2182282                      
system.ruby.network.routers3.msg_count.Request_Control::2         4622                      
system.ruby.network.routers3.msg_count.Response_Data::1      2182415                      
system.ruby.network.routers3.msg_count.Response_Control::1      2176983                      
system.ruby.network.routers3.msg_count.Response_Control::2      2182274                      
system.ruby.network.routers3.msg_count.Writeback_Data::0      2176260                      
system.ruby.network.routers3.msg_count.Writeback_Data::1         4476                      
system.ruby.network.routers3.msg_count.Writeback_Control::0          611                      
system.ruby.network.routers3.msg_bytes.Control::0     17458256                      
system.ruby.network.routers3.msg_bytes.Request_Control::2        36976                      
system.ruby.network.routers3.msg_bytes.Response_Data::1    157133880                      
system.ruby.network.routers3.msg_bytes.Response_Control::1     17415864                      
system.ruby.network.routers3.msg_bytes.Response_Control::2     17458192                      
system.ruby.network.routers3.msg_bytes.Writeback_Data::0    156690720                      
system.ruby.network.routers3.msg_bytes.Writeback_Data::1       322272                      
system.ruby.network.routers3.msg_bytes.Writeback_Control::0         4888                      
system.ruby.network.routers4.percent_links_utilized     0.090388                      
system.ruby.network.routers4.msg_count.Control::0      1653852                      
system.ruby.network.routers4.msg_count.Request_Control::2       271608                      
system.ruby.network.routers4.msg_count.Response_Data::1      1708277                      
system.ruby.network.routers4.msg_count.Response_Control::1      1345222                      
system.ruby.network.routers4.msg_count.Response_Control::2      1133695                      
system.ruby.network.routers4.msg_count.Writeback_Data::0        20853                      
system.ruby.network.routers4.msg_count.Writeback_Data::1            5                      
system.ruby.network.routers4.msg_count.Writeback_Control::0      1079979                      
system.ruby.network.routers4.msg_bytes.Control::0     13230816                      
system.ruby.network.routers4.msg_bytes.Request_Control::2      2172864                      
system.ruby.network.routers4.msg_bytes.Response_Data::1    122995944                      
system.ruby.network.routers4.msg_bytes.Response_Control::1     10761776                      
system.ruby.network.routers4.msg_bytes.Response_Control::2      9069560                      
system.ruby.network.routers4.msg_bytes.Writeback_Data::0      1501416                      
system.ruby.network.routers4.msg_bytes.Writeback_Data::1          360                      
system.ruby.network.routers4.msg_bytes.Writeback_Control::0      8639832                      
system.ruby.network.routers5.percent_links_utilized     0.088852                      
system.ruby.network.routers5.msg_count.Control::0      1658050                      
system.ruby.network.routers5.msg_count.Request_Control::2       249796                      
system.ruby.network.routers5.msg_count.Response_Data::1      1668814                      
system.ruby.network.routers5.msg_count.Response_Control::1      1349358                      
system.ruby.network.routers5.msg_count.Response_Control::2      1137905                      
system.ruby.network.routers5.msg_count.Writeback_Data::0        21145                      
system.ruby.network.routers5.msg_count.Writeback_Data::1           24                      
system.ruby.network.routers5.msg_count.Writeback_Control::0      1083822                      
system.ruby.network.routers5.msg_bytes.Control::0     13264400                      
system.ruby.network.routers5.msg_bytes.Request_Control::2      1998368                      
system.ruby.network.routers5.msg_bytes.Response_Data::1    120154608                      
system.ruby.network.routers5.msg_bytes.Response_Control::1     10794864                      
system.ruby.network.routers5.msg_bytes.Response_Control::2      9103240                      
system.ruby.network.routers5.msg_bytes.Writeback_Data::0      1522440                      
system.ruby.network.routers5.msg_bytes.Writeback_Data::1         1728                      
system.ruby.network.routers5.msg_bytes.Writeback_Control::0      8670576                      
system.ruby.network.routers6.percent_links_utilized     0.563188                      
system.ruby.network.routers6.msg_count.Control::0      8212820                      
system.ruby.network.routers6.msg_count.Request_Control::2       281638                      
system.ruby.network.routers6.msg_count.Response_Data::1      9831256                      
system.ruby.network.routers6.msg_count.Response_Control::1      7537058                      
system.ruby.network.routers6.msg_count.Response_Control::2      4453874                      
system.ruby.network.routers6.msg_count.Writeback_Data::0      2218258                      
system.ruby.network.routers6.msg_count.Writeback_Data::1         4505                      
system.ruby.network.routers6.msg_count.Writeback_Control::0      2164412                      
system.ruby.network.routers6.msg_bytes.Control::0     65702560                      
system.ruby.network.routers6.msg_bytes.Request_Control::2      2253104                      
system.ruby.network.routers6.msg_bytes.Response_Data::1    707850432                      
system.ruby.network.routers6.msg_bytes.Response_Control::1     60296464                      
system.ruby.network.routers6.msg_bytes.Response_Control::2     35630992                      
system.ruby.network.routers6.msg_bytes.Writeback_Data::0    159714576                      
system.ruby.network.routers6.msg_bytes.Writeback_Data::1       324360                      
system.ruby.network.routers6.msg_bytes.Writeback_Control::0     17315296                      
system.ruby.network.routers7.percent_links_utilized     0.210007                      
system.ruby.network.routers7.msg_count.Control::0      2718636                      
system.ruby.network.routers7.msg_count.Response_Data::1      4835001                      
system.ruby.network.routers7.msg_count.Response_Control::1      2665547                      
system.ruby.network.routers7.msg_bytes.Control::0     21749088                      
system.ruby.network.routers7.msg_bytes.Response_Data::1    348120072                      
system.ruby.network.routers7.msg_bytes.Response_Control::1     21324376                      
system.ruby.network.routers8.percent_links_utilized     0.146186                      
system.ruby.network.routers8.msg_count.Control::0      8212820                      
system.ruby.network.routers8.msg_count.Request_Control::2       526026                      
system.ruby.network.routers8.msg_count.Response_Data::1     10361833                      
system.ruby.network.routers8.msg_count.Response_Control::1      7537084                      
system.ruby.network.routers8.msg_count.Response_Control::2      4453874                      
system.ruby.network.routers8.msg_count.Writeback_Data::0      2218258                      
system.ruby.network.routers8.msg_count.Writeback_Data::1         4505                      
system.ruby.network.routers8.msg_count.Writeback_Control::0      2164412                      
system.ruby.network.routers8.msg_bytes.Control::0     65702560                      
system.ruby.network.routers8.msg_bytes.Request_Control::2      4208208                      
system.ruby.network.routers8.msg_bytes.Response_Data::1    746051976                      
system.ruby.network.routers8.msg_bytes.Response_Control::1     60296672                      
system.ruby.network.routers8.msg_bytes.Response_Control::2     35630992                      
system.ruby.network.routers8.msg_bytes.Writeback_Data::0    159714576                      
system.ruby.network.routers8.msg_bytes.Writeback_Data::1       324360                      
system.ruby.network.routers8.msg_bytes.Writeback_Control::0     17315296                      
system.ruby.network.msg_count.Control        24638460                      
system.ruby.network.msg_count.Request_Control      1333690                      
system.ruby.network.msg_count.Response_Data     30587596                      
system.ruby.network.msg_count.Response_Control     35972874                      
system.ruby.network.msg_count.Writeback_Data      6668289                      
system.ruby.network.msg_count.Writeback_Control      6493236                      
system.ruby.network.msg_byte.Control        197107680                      
system.ruby.network.msg_byte.Request_Control     10669520                      
system.ruby.network.msg_byte.Response_Data   2202306912                      
system.ruby.network.msg_byte.Response_Control    287782992                      
system.ruby.network.msg_byte.Writeback_Data    480116808                      
system.ruby.network.msg_byte.Writeback_Control     51945888                      
system.ruby.network.routers0.throttle0.link_utilization            0                      
system.ruby.network.routers0.throttle1.link_utilization            0                      
system.ruby.network.routers1.throttle0.link_utilization            0                      
system.ruby.network.routers1.throttle1.link_utilization            0                      
system.ruby.network.routers2.throttle0.link_utilization            0                      
system.ruby.network.routers2.throttle1.link_utilization            0                      
system.ruby.network.routers3.throttle0.link_utilization     0.187436                      
system.ruby.network.routers3.throttle0.msg_count.Request_Control::2         4622                      
system.ruby.network.routers3.throttle0.msg_count.Response_Data::1      2182264                      
system.ruby.network.routers3.throttle0.msg_count.Response_Control::1      2176913                      
system.ruby.network.routers3.throttle0.msg_bytes.Request_Control::2        36976                      
system.ruby.network.routers3.throttle0.msg_bytes.Response_Data::1    157123008                      
system.ruby.network.routers3.throttle0.msg_bytes.Response_Control::1     17415304                      
system.ruby.network.routers3.throttle1.link_utilization     0.206087                      
system.ruby.network.routers3.throttle1.msg_count.Control::0      2182282                      
system.ruby.network.routers3.throttle1.msg_count.Response_Data::1          151                      
system.ruby.network.routers3.throttle1.msg_count.Response_Control::1           70                      
system.ruby.network.routers3.throttle1.msg_count.Response_Control::2      2182274                      
system.ruby.network.routers3.throttle1.msg_count.Writeback_Data::0      2176260                      
system.ruby.network.routers3.throttle1.msg_count.Writeback_Data::1         4476                      
system.ruby.network.routers3.throttle1.msg_count.Writeback_Control::0          611                      
system.ruby.network.routers3.throttle1.msg_bytes.Control::0     17458256                      
system.ruby.network.routers3.throttle1.msg_bytes.Response_Data::1        10872                      
system.ruby.network.routers3.throttle1.msg_bytes.Response_Control::1          560                      
system.ruby.network.routers3.throttle1.msg_bytes.Response_Control::2     17458192                      
system.ruby.network.routers3.throttle1.msg_bytes.Writeback_Data::0    156690720                      
system.ruby.network.routers3.throttle1.msg_bytes.Writeback_Data::1       322272                      
system.ruby.network.routers3.throttle1.msg_bytes.Writeback_Control::0         4888                      
system.ruby.network.routers4.throttle0.link_utilization     0.139638                      
system.ruby.network.routers4.throttle0.msg_count.Request_Control::2       271608                      
system.ruby.network.routers4.throttle0.msg_count.Response_Data::1      1653851                      
system.ruby.network.routers4.throttle0.msg_count.Response_Control::1      1100834                      
system.ruby.network.routers4.throttle0.msg_bytes.Request_Control::2      2172864                      
system.ruby.network.routers4.throttle0.msg_bytes.Response_Data::1    119077272                      
system.ruby.network.routers4.throttle0.msg_bytes.Response_Control::1      8806672                      
system.ruby.network.routers4.throttle1.link_utilization     0.041139                      
system.ruby.network.routers4.throttle1.msg_count.Control::0      1653852                      
system.ruby.network.routers4.throttle1.msg_count.Response_Data::1        54426                      
system.ruby.network.routers4.throttle1.msg_count.Response_Control::1       244388                      
system.ruby.network.routers4.throttle1.msg_count.Response_Control::2      1133695                      
system.ruby.network.routers4.throttle1.msg_count.Writeback_Data::0        20853                      
system.ruby.network.routers4.throttle1.msg_count.Writeback_Data::1            5                      
system.ruby.network.routers4.throttle1.msg_count.Writeback_Control::0      1079979                      
system.ruby.network.routers4.throttle1.msg_bytes.Control::0     13230816                      
system.ruby.network.routers4.throttle1.msg_bytes.Response_Data::1      3918672                      
system.ruby.network.routers4.throttle1.msg_bytes.Response_Control::1      1955104                      
system.ruby.network.routers4.throttle1.msg_bytes.Response_Control::2      9069560                      
system.ruby.network.routers4.throttle1.msg_bytes.Writeback_Data::0      1501416                      
system.ruby.network.routers4.throttle1.msg_bytes.Writeback_Data::1          360                      
system.ruby.network.routers4.throttle1.msg_bytes.Writeback_Control::0      8639832                      
system.ruby.network.routers5.throttle0.link_utilization     0.139811                      
system.ruby.network.routers5.throttle0.msg_count.Request_Control::2       249796                      
system.ruby.network.routers5.throttle0.msg_count.Response_Data::1      1658049                      
system.ruby.network.routers5.throttle0.msg_count.Response_Control::1      1104969                      
system.ruby.network.routers5.throttle0.msg_bytes.Request_Control::2      1998368                      
system.ruby.network.routers5.throttle0.msg_bytes.Response_Data::1    119379528                      
system.ruby.network.routers5.throttle0.msg_bytes.Response_Control::1      8839752                      
system.ruby.network.routers5.throttle1.link_utilization     0.037893                      
system.ruby.network.routers5.throttle1.msg_count.Control::0      1658050                      
system.ruby.network.routers5.throttle1.msg_count.Response_Data::1        10765                      
system.ruby.network.routers5.throttle1.msg_count.Response_Control::1       244389                      
system.ruby.network.routers5.throttle1.msg_count.Response_Control::2      1137905                      
system.ruby.network.routers5.throttle1.msg_count.Writeback_Data::0        21145                      
system.ruby.network.routers5.throttle1.msg_count.Writeback_Data::1           24                      
system.ruby.network.routers5.throttle1.msg_count.Writeback_Control::0      1083822                      
system.ruby.network.routers5.throttle1.msg_bytes.Control::0     13264400                      
system.ruby.network.routers5.throttle1.msg_bytes.Response_Data::1       775080                      
system.ruby.network.routers5.throttle1.msg_bytes.Response_Control::1      1955112                      
system.ruby.network.routers5.throttle1.msg_bytes.Response_Control::2      9103240                      
system.ruby.network.routers5.throttle1.msg_bytes.Writeback_Data::0      1522440                      
system.ruby.network.routers5.throttle1.msg_bytes.Writeback_Data::1         1728                      
system.ruby.network.routers5.throttle1.msg_bytes.Writeback_Control::0      8670576                      
system.ruby.network.routers6.throttle0.link_utilization     0.513291                      
system.ruby.network.routers6.throttle0.msg_count.Control::0      5494184                      
system.ruby.network.routers6.throttle0.msg_count.Response_Data::1      2751304                      
system.ruby.network.routers6.throttle0.msg_count.Response_Control::1      2879777                      
system.ruby.network.routers6.throttle0.msg_count.Response_Control::2      4453874                      
system.ruby.network.routers6.throttle0.msg_count.Writeback_Data::0      2218258                      
system.ruby.network.routers6.throttle0.msg_count.Writeback_Data::1         4505                      
system.ruby.network.routers6.throttle0.msg_count.Writeback_Control::0      2164412                      
system.ruby.network.routers6.throttle0.msg_bytes.Control::0     43953472                      
system.ruby.network.routers6.throttle0.msg_bytes.Response_Data::1    198093888                      
system.ruby.network.routers6.throttle0.msg_bytes.Response_Control::1     23038216                      
system.ruby.network.routers6.throttle0.msg_bytes.Response_Control::2     35630992                      
system.ruby.network.routers6.throttle0.msg_bytes.Writeback_Data::0    159714576                      
system.ruby.network.routers6.throttle0.msg_bytes.Writeback_Data::1       324360                      
system.ruby.network.routers6.throttle0.msg_bytes.Writeback_Control::0     17315296                      
system.ruby.network.routers6.throttle1.link_utilization     0.613084                      
system.ruby.network.routers6.throttle1.msg_count.Control::0      2718636                      
system.ruby.network.routers6.throttle1.msg_count.Request_Control::2       281638                      
system.ruby.network.routers6.throttle1.msg_count.Response_Data::1      7079952                      
system.ruby.network.routers6.throttle1.msg_count.Response_Control::1      4657281                      
system.ruby.network.routers6.throttle1.msg_bytes.Control::0     21749088                      
system.ruby.network.routers6.throttle1.msg_bytes.Request_Control::2      2253104                      
system.ruby.network.routers6.throttle1.msg_bytes.Response_Data::1    509756544                      
system.ruby.network.routers6.throttle1.msg_bytes.Response_Control::1     37258248                      
system.ruby.network.routers7.throttle0.link_utilization     0.189314                      
system.ruby.network.routers7.throttle0.msg_count.Control::0      2718636                      
system.ruby.network.routers7.throttle0.msg_count.Response_Data::1      2116365                      
system.ruby.network.routers7.throttle0.msg_count.Response_Control::1       274591                      
system.ruby.network.routers7.throttle0.msg_bytes.Control::0     21749088                      
system.ruby.network.routers7.throttle0.msg_bytes.Response_Data::1    152378280                      
system.ruby.network.routers7.throttle0.msg_bytes.Response_Control::1      2196728                      
system.ruby.network.routers7.throttle1.link_utilization     0.230699                      
system.ruby.network.routers7.throttle1.msg_count.Response_Data::1      2718636                      
system.ruby.network.routers7.throttle1.msg_count.Response_Control::1      2390956                      
system.ruby.network.routers7.throttle1.msg_bytes.Response_Data::1    195741792                      
system.ruby.network.routers7.throttle1.msg_bytes.Response_Control::1     19127648                      
system.ruby.network.routers8.throttle0.link_utilization            0                      
system.ruby.network.routers8.throttle1.link_utilization            0                      
system.ruby.network.routers8.throttle2.link_utilization            0                      
system.ruby.network.routers8.throttle3.link_utilization     0.187436                      
system.ruby.network.routers8.throttle3.msg_count.Request_Control::2         4622                      
system.ruby.network.routers8.throttle3.msg_count.Response_Data::1      2182264                      
system.ruby.network.routers8.throttle3.msg_count.Response_Control::1      2176913                      
system.ruby.network.routers8.throttle3.msg_bytes.Request_Control::2        36976                      
system.ruby.network.routers8.throttle3.msg_bytes.Response_Data::1    157123008                      
system.ruby.network.routers8.throttle3.msg_bytes.Response_Control::1     17415304                      
system.ruby.network.routers8.throttle4.link_utilization     0.139638                      
system.ruby.network.routers8.throttle4.msg_count.Request_Control::2       271608                      
system.ruby.network.routers8.throttle4.msg_count.Response_Data::1      1653851                      
system.ruby.network.routers8.throttle4.msg_count.Response_Control::1      1100834                      
system.ruby.network.routers8.throttle4.msg_bytes.Request_Control::2      2172864                      
system.ruby.network.routers8.throttle4.msg_bytes.Response_Data::1    119077272                      
system.ruby.network.routers8.throttle4.msg_bytes.Response_Control::1      8806672                      
system.ruby.network.routers8.throttle5.link_utilization     0.139811                      
system.ruby.network.routers8.throttle5.msg_count.Request_Control::2       249796                      
system.ruby.network.routers8.throttle5.msg_count.Response_Data::1      1658049                      
system.ruby.network.routers8.throttle5.msg_count.Response_Control::1      1104969                      
system.ruby.network.routers8.throttle5.msg_bytes.Request_Control::2      1998368                      
system.ruby.network.routers8.throttle5.msg_bytes.Response_Data::1    119379528                      
system.ruby.network.routers8.throttle5.msg_bytes.Response_Control::1      8839752                      
system.ruby.network.routers8.throttle6.link_utilization     0.513291                      
system.ruby.network.routers8.throttle6.msg_count.Control::0      5494184                      
system.ruby.network.routers8.throttle6.msg_count.Response_Data::1      2751304                      
system.ruby.network.routers8.throttle6.msg_count.Response_Control::1      2879777                      
system.ruby.network.routers8.throttle6.msg_count.Response_Control::2      4453874                      
system.ruby.network.routers8.throttle6.msg_count.Writeback_Data::0      2218258                      
system.ruby.network.routers8.throttle6.msg_count.Writeback_Data::1         4505                      
system.ruby.network.routers8.throttle6.msg_count.Writeback_Control::0      2164412                      
system.ruby.network.routers8.throttle6.msg_bytes.Control::0     43953472                      
system.ruby.network.routers8.throttle6.msg_bytes.Response_Data::1    198093888                      
system.ruby.network.routers8.throttle6.msg_bytes.Response_Control::1     23038216                      
system.ruby.network.routers8.throttle6.msg_bytes.Response_Control::2     35630992                      
system.ruby.network.routers8.throttle6.msg_bytes.Writeback_Data::0    159714576                      
system.ruby.network.routers8.throttle6.msg_bytes.Writeback_Data::1       324360                      
system.ruby.network.routers8.throttle6.msg_bytes.Writeback_Control::0     17315296                      
system.ruby.network.routers8.throttle7.link_utilization     0.189314                      
system.ruby.network.routers8.throttle7.msg_count.Control::0      2718636                      
system.ruby.network.routers8.throttle7.msg_count.Response_Data::1      2116365                      
system.ruby.network.routers8.throttle7.msg_count.Response_Control::1       274591                      
system.ruby.network.routers8.throttle7.msg_bytes.Control::0     21749088                      
system.ruby.network.routers8.throttle7.msg_bytes.Response_Data::1    152378280                      
system.ruby.network.routers8.throttle7.msg_bytes.Response_Control::1      2196728                      
system.ruby.delayVCHist.vnet_0::bucket_size           16                       # delay histogram for vnet_0
system.ruby.delayVCHist.vnet_0::max_bucket          159                       # delay histogram for vnet_0
system.ruby.delayVCHist.vnet_0::samples      14330728                       # delay histogram for vnet_0
system.ruby.delayVCHist.vnet_0::mean         1.253397                       # delay histogram for vnet_0
system.ruby.delayVCHist.vnet_0::stdev        2.913722                       # delay histogram for vnet_0
system.ruby.delayVCHist.vnet_0           |    14329323     99.99%     99.99% |        1401      0.01%    100.00% |           3      0.00%    100.00% |           0      0.00%    100.00% |           0      0.00%    100.00% |           1      0.00%    100.00% |           0      0.00%    100.00% |           0      0.00%    100.00% |           0      0.00%    100.00% |           0      0.00%    100.00% # delay histogram for vnet_0
system.ruby.delayVCHist.vnet_0::total        14330728                       # delay histogram for vnet_0
system.ruby.delayVCHist.vnet_1::bucket_size            2                       # delay histogram for vnet_1
system.ruby.delayVCHist.vnet_1::max_bucket           19                       # delay histogram for vnet_1
system.ruby.delayVCHist.vnet_1::samples      21324738                       # delay histogram for vnet_1
system.ruby.delayVCHist.vnet_1::mean         0.024164                       # delay histogram for vnet_1
system.ruby.delayVCHist.vnet_1::stdev        0.430798                       # delay histogram for vnet_1
system.ruby.delayVCHist.vnet_1           |    21252900     99.66%     99.66% |        6217      0.03%     99.69% |        3643      0.02%     99.71% |        6140      0.03%     99.74% |       53931      0.25%     99.99% |        1697      0.01%    100.00% |          86      0.00%    100.00% |          13      0.00%    100.00% |          93      0.00%    100.00% |          18      0.00%    100.00% # delay histogram for vnet_1
system.ruby.delayVCHist.vnet_1::total        21324738                       # delay histogram for vnet_1
system.ruby.delayVCHist.vnet_2::bucket_size            2                       # delay histogram for vnet_2
system.ruby.delayVCHist.vnet_2::max_bucket           19                       # delay histogram for vnet_2
system.ruby.delayVCHist.vnet_2::samples       1669560                       # delay histogram for vnet_2
system.ruby.delayVCHist.vnet_2::mean         0.098648                       # delay histogram for vnet_2
system.ruby.delayVCHist.vnet_2::stdev        0.698182                       # delay histogram for vnet_2
system.ruby.delayVCHist.vnet_2           |     1636707     98.03%     98.03% |           3      0.00%     98.03% |       32805      1.96%    100.00% |           1      0.00%    100.00% |           0      0.00%    100.00% |           0      0.00%    100.00% |           0      0.00%    100.00% |          44      0.00%    100.00% |           0      0.00%    100.00% |           0      0.00%    100.00% # delay histogram for vnet_2
system.ruby.delayVCHist.vnet_2::total         1669560                       # delay histogram for vnet_2
system.ruby.LD.latency_hist::bucket_size           16                      
system.ruby.LD.latency_hist::max_bucket           159                      
system.ruby.LD.latency_hist::samples        439887305                      
system.ruby.LD.latency_hist::mean            1.292072                      
system.ruby.LD.latency_hist::gmean           1.027588                      
system.ruby.LD.latency_hist::stdev           4.083724                      
system.ruby.LD.latency_hist              |   436587181     99.25%     99.25% |     2220156      0.50%     99.75% |       48268      0.01%     99.77% |       30486      0.01%     99.77% |      519189      0.12%     99.89% |      477063      0.11%    100.00% |        2226      0.00%    100.00% |        2725      0.00%    100.00% |          10      0.00%    100.00% |           1      0.00%    100.00%
system.ruby.LD.latency_hist::total          439887305                      
system.ruby.LD.hit_latency_hist::bucket_size           16                      
system.ruby.LD.hit_latency_hist::max_bucket          159                      
system.ruby.LD.hit_latency_hist::samples    439887305                      
system.ruby.LD.hit_latency_hist::mean        1.292072                      
system.ruby.LD.hit_latency_hist::gmean       1.027588                      
system.ruby.LD.hit_latency_hist::stdev       4.083724                      
system.ruby.LD.hit_latency_hist          |   436587181     99.25%     99.25% |     2220156      0.50%     99.75% |       48268      0.01%     99.77% |       30486      0.01%     99.77% |      519189      0.12%     99.89% |      477063      0.11%    100.00% |        2226      0.00%    100.00% |        2725      0.00%    100.00% |          10      0.00%    100.00% |           1      0.00%    100.00%
system.ruby.LD.hit_latency_hist::total      439887305                      
system.ruby.ST.latency_hist::bucket_size           16                      
system.ruby.ST.latency_hist::max_bucket           159                      
system.ruby.ST.latency_hist::samples        227621121                      
system.ruby.ST.latency_hist::mean            1.811184                      
system.ruby.ST.latency_hist::gmean           1.043503                      
system.ruby.ST.latency_hist::stdev           8.298040                      
system.ruby.ST.latency_hist              |   225438529     99.04%     99.04% |       14377      0.01%     99.05% |           9      0.00%     99.05% |        3581      0.00%     99.05% |      324488      0.14%     99.19% |     1811820      0.80%     99.99% |       28190      0.01%    100.00% |         119      0.00%    100.00% |           7      0.00%    100.00% |           1      0.00%    100.00%
system.ruby.ST.latency_hist::total          227621121                      
system.ruby.ST.hit_latency_hist::bucket_size           16                      
system.ruby.ST.hit_latency_hist::max_bucket          159                      
system.ruby.ST.hit_latency_hist::samples    227621121                      
system.ruby.ST.hit_latency_hist::mean        1.811184                      
system.ruby.ST.hit_latency_hist::gmean       1.043503                      
system.ruby.ST.hit_latency_hist::stdev       8.298040                      
system.ruby.ST.hit_latency_hist          |   225438529     99.04%     99.04% |       14377      0.01%     99.05% |           9      0.00%     99.05% |        3581      0.00%     99.05% |      324488      0.14%     99.19% |     1811820      0.80%     99.99% |       28190      0.01%    100.00% |         119      0.00%    100.00% |           7      0.00%    100.00% |           1      0.00%    100.00%
system.ruby.ST.hit_latency_hist::total      227621121                      
system.ruby.IFETCH.latency_hist::bucket_size           16                      
system.ruby.IFETCH.latency_hist::max_bucket          159                      
system.ruby.IFETCH.latency_hist::samples   2255850521                      
system.ruby.IFETCH.latency_hist::mean        1.000142                      
system.ruby.IFETCH.latency_hist::gmean       1.000016                      
system.ruby.IFETCH.latency_hist::stdev       0.073016                      
system.ruby.IFETCH.latency_hist          |  2255839612    100.00%    100.00% |        9269      0.00%    100.00% |          35      0.00%    100.00% |        1286      0.00%    100.00% |         104      0.00%    100.00% |         209      0.00%    100.00% |           6      0.00%    100.00% |           0      0.00%    100.00% |           0      0.00%    100.00% |           0      0.00%    100.00%
system.ruby.IFETCH.latency_hist::total     2255850521                      
system.ruby.IFETCH.hit_latency_hist::bucket_size           16                      
system.ruby.IFETCH.hit_latency_hist::max_bucket          159                      
system.ruby.IFETCH.hit_latency_hist::samples   2255850521                      
system.ruby.IFETCH.hit_latency_hist::mean     1.000142                      
system.ruby.IFETCH.hit_latency_hist::gmean     1.000016                      
system.ruby.IFETCH.hit_latency_hist::stdev     0.073016                      
system.ruby.IFETCH.hit_latency_hist      |  2255839612    100.00%    100.00% |        9269      0.00%    100.00% |          35      0.00%    100.00% |        1286      0.00%    100.00% |         104      0.00%    100.00% |         209      0.00%    100.00% |           6      0.00%    100.00% |           0      0.00%    100.00% |           0      0.00%    100.00% |           0      0.00%    100.00%
system.ruby.IFETCH.hit_latency_hist::total   2255850521                      
system.ruby.RMW_Read.latency_hist::bucket_size           16                      
system.ruby.RMW_Read.latency_hist::max_bucket          159                      
system.ruby.RMW_Read.latency_hist::samples          454                      
system.ruby.RMW_Read.latency_hist::mean      1.922907                      
system.ruby.RMW_Read.latency_hist::gmean     1.116389                      
system.ruby.RMW_Read.latency_hist::stdev     5.767822                      
system.ruby.RMW_Read.latency_hist        |         440     96.92%     96.92% |          12      2.64%     99.56% |           1      0.22%     99.78% |           0      0.00%     99.78% |           0      0.00%     99.78% |           1      0.22%    100.00% |           0      0.00%    100.00% |           0      0.00%    100.00% |           0      0.00%    100.00% |           0      0.00%    100.00%
system.ruby.RMW_Read.latency_hist::total          454                      
system.ruby.RMW_Read.hit_latency_hist::bucket_size           16                      
system.ruby.RMW_Read.hit_latency_hist::max_bucket          159                      
system.ruby.RMW_Read.hit_latency_hist::samples          454                      
system.ruby.RMW_Read.hit_latency_hist::mean     1.922907                      
system.ruby.RMW_Read.hit_latency_hist::gmean     1.116389                      
system.ruby.RMW_Read.hit_latency_hist::stdev     5.767822                      
system.ruby.RMW_Read.hit_latency_hist    |         440     96.92%     96.92% |          12      2.64%     99.56% |           1      0.22%     99.78% |           0      0.00%     99.78% |           0      0.00%     99.78% |           1      0.22%    100.00% |           0      0.00%    100.00% |           0      0.00%    100.00% |           0      0.00%    100.00% |           0      0.00%    100.00%
system.ruby.RMW_Read.hit_latency_hist::total          454                      
system.ruby.Locked_RMW_Read.latency_hist::bucket_size           16                      
system.ruby.Locked_RMW_Read.latency_hist::max_bucket          159                      
system.ruby.Locked_RMW_Read.latency_hist::samples     50718283                      
system.ruby.Locked_RMW_Read.latency_hist::mean     1.000269                      
system.ruby.Locked_RMW_Read.latency_hist::gmean     1.000035                      
system.ruby.Locked_RMW_Read.latency_hist::stdev     0.085619                      
system.ruby.Locked_RMW_Read.latency_hist |    50717738    100.00%    100.00% |         535      0.00%    100.00% |           0      0.00%    100.00% |           3      0.00%    100.00% |           2      0.00%    100.00% |           4      0.00%    100.00% |           0      0.00%    100.00% |           1      0.00%    100.00% |           0      0.00%    100.00% |           0      0.00%    100.00%
system.ruby.Locked_RMW_Read.latency_hist::total     50718283                      
system.ruby.Locked_RMW_Read.hit_latency_hist::bucket_size           16                      
system.ruby.Locked_RMW_Read.hit_latency_hist::max_bucket          159                      
system.ruby.Locked_RMW_Read.hit_latency_hist::samples     50718283                      
system.ruby.Locked_RMW_Read.hit_latency_hist::mean     1.000269                      
system.ruby.Locked_RMW_Read.hit_latency_hist::gmean     1.000035                      
system.ruby.Locked_RMW_Read.hit_latency_hist::stdev     0.085619                      
system.ruby.Locked_RMW_Read.hit_latency_hist |    50717738    100.00%    100.00% |         535      0.00%    100.00% |           0      0.00%    100.00% |           3      0.00%    100.00% |           2      0.00%    100.00% |           4      0.00%    100.00% |           0      0.00%    100.00% |           1      0.00%    100.00% |           0      0.00%    100.00% |           0      0.00%    100.00%
system.ruby.Locked_RMW_Read.hit_latency_hist::total     50718283                      
system.ruby.Locked_RMW_Write.latency_hist::bucket_size            1                      
system.ruby.Locked_RMW_Write.latency_hist::max_bucket            9                      
system.ruby.Locked_RMW_Write.latency_hist::samples     50718283                      
system.ruby.Locked_RMW_Write.latency_hist::mean            1                      
system.ruby.Locked_RMW_Write.latency_hist::gmean            1                      
system.ruby.Locked_RMW_Write.latency_hist |           0      0.00%      0.00% |    50718283    100.00%    100.00% |           0      0.00%    100.00% |           0      0.00%    100.00% |           0      0.00%    100.00% |           0      0.00%    100.00% |           0      0.00%    100.00% |           0      0.00%    100.00% |           0      0.00%    100.00% |           0      0.00%    100.00%
system.ruby.Locked_RMW_Write.latency_hist::total     50718283                      
system.ruby.Locked_RMW_Write.hit_latency_hist::bucket_size            1                      
system.ruby.Locked_RMW_Write.hit_latency_hist::max_bucket            9                      
system.ruby.Locked_RMW_Write.hit_latency_hist::samples     50718283                      
system.ruby.Locked_RMW_Write.hit_latency_hist::mean            1                      
system.ruby.Locked_RMW_Write.hit_latency_hist::gmean            1                      
system.ruby.Locked_RMW_Write.hit_latency_hist |           0      0.00%      0.00% |    50718283    100.00%    100.00% |           0      0.00%    100.00% |           0      0.00%    100.00% |           0      0.00%    100.00% |           0      0.00%    100.00% |           0      0.00%    100.00% |           0      0.00%    100.00% |           0      0.00%    100.00% |           0      0.00%    100.00%
system.ruby.Locked_RMW_Write.hit_latency_hist::total     50718283                      
system.ruby.Directory_Controller.Fetch        2718636      0.00%      0.00%
system.ruby.Directory_Controller.Data         2116365      0.00%      0.00%
system.ruby.Directory_Controller.Memory_Data      2718636      0.00%      0.00%
system.ruby.Directory_Controller.Memory_Ack      2116365      0.00%      0.00%
system.ruby.Directory_Controller.CleanReplacement       274591      0.00%      0.00%
system.ruby.Directory_Controller.I.Fetch      2718636      0.00%      0.00%
system.ruby.Directory_Controller.M.Data       2116365      0.00%      0.00%
system.ruby.Directory_Controller.M.CleanReplacement       274591      0.00%      0.00%
system.ruby.Directory_Controller.IM.Memory_Data      2718636      0.00%      0.00%
system.ruby.Directory_Controller.MI.Memory_Ack      2116365      0.00%      0.00%
system.ruby.L0Cache_Controller.Load      |   382944011     87.06%     87.06% |    28471647      6.47%     93.53% |    28471647      6.47%    100.00%
system.ruby.L0Cache_Controller.Load::total    439887305                      
system.ruby.L0Cache_Controller.Ifetch    |  2106839141     93.39%     93.39% |    74505690      3.30%     96.70% |    74505690      3.30%    100.00%
system.ruby.L0Cache_Controller.Ifetch::total   2255850521                      
system.ruby.L0Cache_Controller.Store     |   328734365     99.90%     99.90% |      161888      0.05%     99.95% |      161888      0.05%    100.00%
system.ruby.L0Cache_Controller.Store::total    329058141                      
system.ruby.L0Cache_Controller.Inv       |        9939      0.87%      0.87% |      567150     49.60%     50.47% |      566445     49.53%    100.00%
system.ruby.L0Cache_Controller.Inv::total      1143534                      
system.ruby.L0Cache_Controller.L0_Replacement |     2171755     38.16%     38.16% |     1751070     30.77%     68.92% |     1768756     31.08%    100.00%
system.ruby.L0Cache_Controller.L0_Replacement::total      5691581                      
system.ruby.L0Cache_Controller.Data      |          30      0.00%      0.00% |      528160     49.05%     49.05% |      548652     50.95%    100.00%
system.ruby.L0Cache_Controller.Data::total      1076842                      
system.ruby.L0Cache_Controller.Data_Exclusive |     2182383     46.09%     46.09% |     1288544     27.21%     73.30% |     1264503     26.70%    100.00%
system.ruby.L0Cache_Controller.Data_Exclusive::total      4735430                      
system.ruby.L0Cache_Controller.NP.Load   |        2776      0.08%      0.08% |     1809446     50.01%     50.09% |     1805899     49.91%    100.00%
system.ruby.L0Cache_Controller.NP.Load::total      3618121                      
system.ruby.L0Cache_Controller.NP.Ifetch |        6625     60.32%     60.32% |        2180     19.85%     80.17% |        2178     19.83%    100.00%
system.ruby.L0Cache_Controller.NP.Ifetch::total        10983                      
system.ruby.L0Cache_Controller.NP.Store  |     2172994     99.53%     99.53% |        5077      0.23%     99.77% |        5077      0.23%    100.00%
system.ruby.L0Cache_Controller.NP.Store::total      2183148                      
system.ruby.L0Cache_Controller.NP.Inv    |           0      0.00%      0.00% |      502037     49.00%     49.00% |      522567     51.00%    100.00%
system.ruby.L0Cache_Controller.NP.Inv::total      1024604                      
system.ruby.L0Cache_Controller.S.Load    |     2484217      8.35%      8.35% |    13517468     45.45%     53.80% |    13739785     46.20%    100.00%
system.ruby.L0Cache_Controller.S.Load::total     29741470                      
system.ruby.L0Cache_Controller.S.Ifetch  |          48      0.00%      0.00% |    74503397     50.00%     50.00% |    74503458     50.00%    100.00%
system.ruby.L0Cache_Controller.S.Ifetch::total    149006903                      
system.ruby.L0Cache_Controller.S.Store   |          18     90.00%     90.00% |           1      5.00%     95.00% |           1      5.00%    100.00%
system.ruby.L0Cache_Controller.S.Store::total           20                      
system.ruby.L0Cache_Controller.S.Inv     |           3      0.01%      0.01% |       22302     50.01%     50.02% |       22286     49.98%    100.00%
system.ruby.L0Cache_Controller.S.Inv::total        44591                      
system.ruby.L0Cache_Controller.S.L0_Replacement |           5      0.00%      0.00% |      505393     49.01%     49.01% |      525894     50.99%    100.00%
system.ruby.L0Cache_Controller.S.L0_Replacement::total      1031292                      
system.ruby.L0Cache_Controller.E.Load    |    63178860     70.92%     70.92% |    13064164     14.66%     85.58% |    12845438     14.42%    100.00%
system.ruby.L0Cache_Controller.E.Load::total     89088462                      
system.ruby.L0Cache_Controller.E.Ifetch  |  2106832468    100.00%    100.00% |         113      0.00%    100.00% |          54      0.00%    100.00%
system.ruby.L0Cache_Controller.E.Ifetch::total   2106832635                      
[...]
system.ruby.L0Cache_Controller.IM.Data_Exclusive::total      2183148                      
system.ruby.L0Cache_Controller.SM.Data_Exclusive |          18     90.00%     90.00% |           1      5.00%     95.00% |           1      5.00%    100.00%
system.ruby.L0Cache_Controller.SM.Data_Exclusive::total           20                      
system.ruby.L1Cache_Controller.Load      |        9401      0.26%      0.26% |     1811626     49.92%     50.18% |     1808077     49.82%    100.00%
system.ruby.L1Cache_Controller.Load::total      3629104                      
system.ruby.L1Cache_Controller.Store     |     2173012     99.53%     99.53% |        5078      0.23%     99.77% |        5078      0.23%    100.00%
system.ruby.L1Cache_Controller.Store::total      2183168                      
system.ruby.L1Cache_Controller.WriteBack |     2171750     46.60%     46.60% |     1245677     26.73%     73.33% |     1242862     26.67%    100.00%
system.ruby.L1Cache_Controller.WriteBack::total      4660289                      
system.ruby.L1Cache_Controller.L0_DataAck |        3684     81.23%     81.23% |         406      8.95%     90.19% |         445      9.81%    100.00%
system.ruby.L1Cache_Controller.L0_DataAck::total         4535                      
system.ruby.L1Cache_Controller.Inv       |        4546      0.92%      0.92% |      244393     49.54%     50.46% |      244413     49.54%    100.00%
system.ruby.L1Cache_Controller.Inv::total       493352                      
system.ruby.L1Cache_Controller.L0_Invalidate_Own |       18706      0.84%      0.84% |     1080476     48.64%     49.48% |     1122098     50.52%    100.00%
system.ruby.L1Cache_Controller.L0_Invalidate_Own::total      2221280                      
system.ruby.L1Cache_Controller.L0_Invalidate_Else |        1172      1.78%      1.78% |       53824     81.81%     83.60% |       10792     16.40%    100.00%
system.ruby.L1Cache_Controller.L0_Invalidate_Else::total        65788                      
system.ruby.L1Cache_Controller.L1_Replacement |     2176871     39.72%     39.72% |     1649744     30.10%     69.82% |     1653928     30.18%    100.00%
system.ruby.L1Cache_Controller.L1_Replacement::total      5480543                      
system.ruby.L1Cache_Controller.Fwd_GETX  |           1     16.67%     16.67% |           4     66.67%     83.33% |           1     16.67%    100.00%
system.ruby.L1Cache_Controller.Fwd_GETX::total            6                      
system.ruby.L1Cache_Controller.Fwd_GETS  |          75      0.23%      0.23% |       27211     83.30%     83.53% |        5382     16.47%    100.00%
system.ruby.L1Cache_Controller.Fwd_GETS::total        32668                      
system.ruby.L1Cache_Controller.Data_Exclusive |        9262      0.41%      0.41% |     1123236     50.19%     50.60% |     1105557     49.40%    100.00%
system.ruby.L1Cache_Controller.Data_Exclusive::total      2238055                      
system.ruby.L1Cache_Controller.DataS_fromL1 |          15      0.05%      0.05% |        5382     16.47%     16.52% |       27271     83.48%    100.00%
system.ruby.L1Cache_Controller.DataS_fromL1::total        32668                      
system.ruby.L1Cache_Controller.Data_all_Acks |     2172987     67.41%     67.41% |      525233     16.29%     83.71% |      525221     16.29%    100.00%
system.ruby.L1Cache_Controller.Data_all_Acks::total      3223441                      
system.ruby.L1Cache_Controller.L0_Ack    |        6255      0.55%      0.55% |      566744     49.76%     50.31% |      566000     49.69%    100.00%
system.ruby.L1Cache_Controller.L0_Ack::total      1138999                      
system.ruby.L1Cache_Controller.Ack       |          24     92.31%     92.31% |           1      3.85%     96.15% |           1      3.85%    100.00%
system.ruby.L1Cache_Controller.Ack::total           26                      
system.ruby.L1Cache_Controller.Ack_all   |          18     90.00%     90.00% |           1      5.00%     95.00% |           1      5.00%    100.00%
system.ruby.L1Cache_Controller.Ack_all::total           20                      
system.ruby.L1Cache_Controller.WB_Ack    |     2176871     49.67%     49.67% |     1100832     25.12%     74.79% |     1104967     25.21%    100.00%
system.ruby.L1Cache_Controller.WB_Ack::total      4382670                      
system.ruby.L1Cache_Controller.NP.Load   |        9285      0.28%      0.28% |     1648775     49.80%     50.08% |     1652973     49.92%    100.00%
system.ruby.L1Cache_Controller.NP.Load::total      3311033                      
system.ruby.L1Cache_Controller.NP.Store  |     2172979     99.53%     99.53% |        5076      0.23%     99.77% |        5076      0.23%    100.00%
system.ruby.L1Cache_Controller.NP.Store::total      2183131                      
system.ruby.L1Cache_Controller.NP.Inv    |           0      0.00%      0.00% |      244370     50.00%     50.00% |      244376     50.00%    100.00%
system.ruby.L1Cache_Controller.NP.Inv::total       488746                      
system.ruby.L1Cache_Controller.I.L1_Replacement |           0      0.00%      0.00% |           2    100.00%    100.00% |           0      0.00%    100.00%
system.ruby.L1Cache_Controller.I.L1_Replacement::total            2                      
system.ruby.L1Cache_Controller.S.Load    |           1     25.00%     25.00% |           1     25.00%     50.00% |           2     50.00%    100.00%
system.ruby.L1Cache_Controller.S.Load::total            4                      
system.ruby.L1Cache_Controller.S.Store   |          18     90.00%     90.00% |           1      5.00%     95.00% |           1      5.00%    100.00%
system.ruby.L1Cache_Controller.S.Store::total           20                      
system.ruby.L1Cache_Controller.S.L0_Invalidate_Own |           0      0.00%      0.00% |      524327     49.04%     49.04% |      544847     50.96%    100.00%
system.ruby.L1Cache_Controller.S.L0_Invalidate_Own::total      1069174                      
system.ruby.L1Cache_Controller.S.L0_Invalidate_Else |           3     14.29%     14.29% |          12     57.14%     71.43% |           6     28.57%    100.00%
system.ruby.L1Cache_Controller.S.L0_Invalidate_Else::total           21                      
system.ruby.L1Cache_Controller.SS.Load   |           6      0.16%      0.16% |        2620     67.88%     68.03% |        1234     31.97%    100.00%
system.ruby.L1Cache_Controller.SS.Load::total         3860                      
system.ruby.L1Cache_Controller.SS.Inv    |           9     22.50%     22.50% |          18     45.00%     67.50% |          13     32.50%    100.00%
system.ruby.L1Cache_Controller.SS.Inv::total           40                      
system.ruby.L1Cache_Controller.SS.L1_Replacement |           0      0.00%      0.00% |      548910     50.00%     50.00% |      548961     50.00%    100.00%
system.ruby.L1Cache_Controller.SS.L1_Replacement::total      1097871                      
system.ruby.L1Cache_Controller.E.WriteBack |         850      0.04%      0.04% |     1081212     49.90%     49.94% |     1084580     50.06%    100.00%
system.ruby.L1Cache_Controller.E.WriteBack::total      2166642                      
system.ruby.L1Cache_Controller.E.L0_Invalidate_Own |        7735     20.10%     20.10% |       15157     39.38%     59.47% |       15599     40.53%    100.00%
system.ruby.L1Cache_Controller.E.L0_Invalidate_Own::total        38491                      
system.ruby.L1Cache_Controller.E.L0_Invalidate_Else |          73      0.23%      0.23% |       26893     83.13%     83.35% |        5385     16.65%    100.00%
system.ruby.L1Cache_Controller.E.L0_Invalidate_Else::total        32351                      
system.ruby.L1Cache_Controller.EE.Load   |           3      7.14%      7.14% |          29     69.05%     76.19% |          10     23.81%    100.00%
system.ruby.L1Cache_Controller.EE.Load::total           42                      
system.ruby.L1Cache_Controller.EE.Inv    |          61    100.00%    100.00% |           0      0.00%    100.00% |           0      0.00%    100.00%
system.ruby.L1Cache_Controller.EE.Inv::total           61                      
system.ruby.L1Cache_Controller.EE.L1_Replacement |        6146     17.04%     17.04% |       14763     40.93%     57.97% |       15161     42.03%    100.00%
system.ruby.L1Cache_Controller.EE.L1_Replacement::total        36070                      
system.ruby.L1Cache_Controller.EE.Fwd_GETX |           1     33.33%     33.33% |           1     33.33%     66.67% |           1     33.33%    100.00%
system.ruby.L1Cache_Controller.EE.Fwd_GETX::total            3                      
system.ruby.L1Cache_Controller.EE.Fwd_GETS |           4      0.01%      0.01% |       26863     83.32%     83.33% |        5374     16.67%    100.00%
system.ruby.L1Cache_Controller.EE.Fwd_GETS::total        32241                      
system.ruby.L1Cache_Controller.M.WriteBack |     2170900     87.06%     87.06% |      164465      6.60%     93.65% |      158282      6.35%    100.00%
system.ruby.L1Cache_Controller.M.WriteBack::total      2493647                      
system.ruby.L1Cache_Controller.M.L0_Invalidate_Own |        1618     54.39%     54.39% |         754     25.34%     79.73% |         603     20.27%    100.00%
system.ruby.L1Cache_Controller.M.L0_Invalidate_Own::total         2975                      
system.ruby.L1Cache_Controller.M.L0_Invalidate_Else |         510     97.70%     97.70% |           7      1.34%     99.04% |           5      0.96%    100.00%
system.ruby.L1Cache_Controller.M.L0_Invalidate_Else::total          522                      
system.ruby.L1Cache_Controller.MM.Load   |         106      0.03%      0.03% |      160201     50.99%     51.03% |      153858     48.97%    100.00%
system.ruby.L1Cache_Controller.MM.Load::total       314165                      
system.ruby.L1Cache_Controller.MM.Store  |          15     88.24%     88.24% |           1      5.88%     94.12% |           1      5.88%    100.00%
system.ruby.L1Cache_Controller.MM.Store::total           17                      
system.ruby.L1Cache_Controller.MM.Inv    |        4476     99.36%     99.36% |           5      0.11%     99.47% |          24      0.53%    100.00%
system.ruby.L1Cache_Controller.MM.Inv::total         4505                      
system.ruby.L1Cache_Controller.MM.L1_Replacement |     2170725     49.94%     49.94% |     1086069     24.99%     74.93% |     1089806     25.07%    100.00%
system.ruby.L1Cache_Controller.MM.L1_Replacement::total      4346600                      
system.ruby.L1Cache_Controller.MM.Fwd_GETX |           0      0.00%      0.00% |           3    100.00%    100.00% |           0      0.00%    100.00%
system.ruby.L1Cache_Controller.MM.Fwd_GETX::total            3                      
system.ruby.L1Cache_Controller.MM.Fwd_GETS |          71     16.63%     16.63% |         348     81.50%     98.13% |           8      1.87%    100.00%
system.ruby.L1Cache_Controller.MM.Fwd_GETS::total          427                      
system.ruby.L1Cache_Controller.IS.Data_Exclusive |        9262      0.41%      0.41% |     1123236     50.19%     50.60% |     1105557     49.40%    100.00%
system.ruby.L1Cache_Controller.IS.Data_Exclusive::total      2238055                      
system.ruby.L1Cache_Controller.IS.DataS_fromL1 |          15      0.05%      0.05% |        5382     16.47%     16.52% |       27271     83.48%    100.00%
system.ruby.L1Cache_Controller.IS.DataS_fromL1::total        32668                      
system.ruby.L1Cache_Controller.IS.Data_all_Acks |           8      0.00%      0.00% |      520157     50.00%     50.00% |      520145     50.00%    100.00%
system.ruby.L1Cache_Controller.IS.Data_all_Acks::total      1040310                      
system.ruby.L1Cache_Controller.IM.Data_all_Acks |     2172979     99.53%     99.53% |        5076      0.23%     99.77% |        5076      0.23%    100.00%
system.ruby.L1Cache_Controller.IM.Data_all_Acks::total      2183131                      
system.ruby.L1Cache_Controller.SM.Ack    |          24     92.31%     92.31% |           1      3.85%     96.15% |           1      3.85%    100.00%
system.ruby.L1Cache_Controller.SM.Ack::total           26                      
system.ruby.L1Cache_Controller.SM.Ack_all |          18     90.00%     90.00% |           1      5.00%     95.00% |           1      5.00%    100.00%
system.ruby.L1Cache_Controller.SM.Ack_all::total           20                      
system.ruby.L1Cache_Controller.M_I.WB_Ack |     2176871     49.67%     49.67% |     1100832     25.12%     74.79% |     1104967     25.21%    100.00%
system.ruby.L1Cache_Controller.M_I.WB_Ack::total      4382670                      
system.ruby.L1Cache_Controller.S_IL0.L0_Invalidate_Own |           0      0.00%      0.00% |      524327     49.04%     49.04% |      544847     50.96%    100.00%
system.ruby.L1Cache_Controller.S_IL0.L0_Invalidate_Own::total      1069174                      
system.ruby.L1Cache_Controller.S_IL0.L0_Invalidate_Else |           3     14.29%     14.29% |          12     57.14%     71.43% |           6     28.57%    100.00%
system.ruby.L1Cache_Controller.S_IL0.L0_Invalidate_Else::total           21                      
system.ruby.L1Cache_Controller.S_IL0.L0_Ack |           3      0.00%      0.00% |      524339     49.04%     49.04% |      544853     50.96%    100.00%
system.ruby.L1Cache_Controller.S_IL0.L0_Ack::total      1069195                      
system.ruby.L1Cache_Controller.E_IL0.L0_DataAck |        1593     65.69%     65.69% |         394     16.25%     81.94% |         438     18.06%    100.00%
system.ruby.L1Cache_Controller.E_IL0.L0_DataAck::total         2425                      
system.ruby.L1Cache_Controller.E_IL0.L0_Invalidate_Own |        7735     20.10%     20.10% |       15157     39.38%     59.47% |       15599     40.53%    100.00%
system.ruby.L1Cache_Controller.E_IL0.L0_Invalidate_Own::total        38491                      
system.ruby.L1Cache_Controller.E_IL0.L0_Invalidate_Else |          73      0.23%      0.23% |       26893     83.13%     83.35% |        5385     16.65%    100.00%
system.ruby.L1Cache_Controller.E_IL0.L0_Invalidate_Else::total        32351                      
system.ruby.L1Cache_Controller.E_IL0.L0_Ack |        6215      9.08%      9.08% |       41656     60.89%     69.97% |       20546     30.03%    100.00%
system.ruby.L1Cache_Controller.E_IL0.L0_Ack::total        68417                      
system.ruby.L1Cache_Controller.M_IL0.L0_DataAck |        2091     99.10%     99.10% |          12      0.57%     99.67% |           7      0.33%    100.00%
system.ruby.L1Cache_Controller.M_IL0.L0_DataAck::total         2110                      
system.ruby.L1Cache_Controller.M_IL0.L0_Invalidate_Own |        1618     54.39%     54.39% |         754     25.34%     79.73% |         603     20.27%    100.00%
system.ruby.L1Cache_Controller.M_IL0.L0_Invalidate_Own::total         2975                      
system.ruby.L1Cache_Controller.M_IL0.L0_Invalidate_Else |         510     97.70%     97.70% |           7      1.34%     99.04% |           5      0.96%    100.00%
system.ruby.L1Cache_Controller.M_IL0.L0_Invalidate_Else::total          522                      
system.ruby.L1Cache_Controller.M_IL0.L0_Ack |          37      2.67%      2.67% |         749     54.00%     56.67% |         601     43.33%    100.00%
system.ruby.L1Cache_Controller.M_IL0.L0_Ack::total         1387                      
system.ruby.L2Cache_Controller.L1_GETS        3312427      0.00%      0.00%
system.ruby.L2Cache_Controller.L1_GETX        2183134      0.00%      0.00%
system.ruby.L2Cache_Controller.L1_UPGRADE           20      0.00%      0.00%
system.ruby.L2Cache_Controller.L1_PUTX        4382670      0.00%      0.00%
system.ruby.L2Cache_Controller.L2_Replacement      2111897      0.00%      0.00%
system.ruby.L2Cache_Controller.L2_Replacement_clean       279059      0.00%      0.00%
system.ruby.L2Cache_Controller.Mem_Data       2718636      0.00%      0.00%
system.ruby.L2Cache_Controller.Mem_Ack        2390956      0.00%      0.00%
system.ruby.L2Cache_Controller.WB_Data          36800      0.00%      0.00%
system.ruby.L2Cache_Controller.WB_Data_clean          373      0.00%      0.00%
system.ruby.L2Cache_Controller.Ack             244382      0.00%      0.00%
system.ruby.L2Cache_Controller.Ack_all         244439      0.00%      0.00%
system.ruby.L2Cache_Controller.Unblock          32668      0.00%      0.00%
system.ruby.L2Cache_Controller.Exclusive_Unblock      4421206      0.00%      0.00%
system.ruby.L2Cache_Controller.NP.L1_GETS       550421      0.00%      0.00%
system.ruby.L2Cache_Controller.NP.L1_GETX      2168215      0.00%      0.00%
system.ruby.L2Cache_Controller.SS.L1_GETS        44504      0.00%      0.00%
system.ruby.L2Cache_Controller.SS.L1_UPGRADE           20      0.00%      0.00%
system.ruby.L2Cache_Controller.SS.L2_Replacement         6170      0.00%      0.00%
system.ruby.L2Cache_Controller.SS.L2_Replacement_clean       238208      0.00%      0.00%
system.ruby.L2Cache_Controller.M.L1_GETS      2185537      0.00%      0.00%
system.ruby.L2Cache_Controller.M.L1_GETX        14910      0.00%      0.00%
system.ruby.L2Cache_Controller.M.L2_Replacement      2105707      0.00%      0.00%
system.ruby.L2Cache_Controller.M.L2_Replacement_clean        36305      0.00%      0.00%
system.ruby.L2Cache_Controller.MT.L1_GETS        32668      0.00%      0.00%
system.ruby.L2Cache_Controller.MT.L1_GETX            6      0.00%      0.00%
system.ruby.L2Cache_Controller.MT.L1_PUTX      4382670      0.00%      0.00%
system.ruby.L2Cache_Controller.MT.L2_Replacement           20      0.00%      0.00%
system.ruby.L2Cache_Controller.MT.L2_Replacement_clean         4546      0.00%      0.00%
system.ruby.L2Cache_Controller.M_I.L1_GETS            6      0.00%      0.00%
system.ruby.L2Cache_Controller.M_I.L1_GETX            1      0.00%      0.00%
system.ruby.L2Cache_Controller.M_I.Mem_Ack      2390956      0.00%      0.00%
system.ruby.L2Cache_Controller.MT_I.WB_Data            8      0.00%      0.00%
system.ruby.L2Cache_Controller.MT_I.Ack_all           12      0.00%      0.00%
system.ruby.L2Cache_Controller.MCT_I.WB_Data         4468      0.00%      0.00%
system.ruby.L2Cache_Controller.MCT_I.WB_Data_clean           29      0.00%      0.00%
system.ruby.L2Cache_Controller.MCT_I.Ack_all           49      0.00%      0.00%
system.ruby.L2Cache_Controller.I_I.Ack         238209      0.00%      0.00%
system.ruby.L2Cache_Controller.I_I.Ack_all       238208      0.00%      0.00%
system.ruby.L2Cache_Controller.S_I.Ack           6173      0.00%      0.00%
system.ruby.L2Cache_Controller.S_I.Ack_all         6170      0.00%      0.00%
system.ruby.L2Cache_Controller.ISS.L1_GETS       497903      0.00%      0.00%
system.ruby.L2Cache_Controller.ISS.Mem_Data        52518      0.00%      0.00%
system.ruby.L2Cache_Controller.IS.Mem_Data       497903      0.00%      0.00%
system.ruby.L2Cache_Controller.IM.L1_GETX            2      0.00%      0.00%
system.ruby.L2Cache_Controller.IM.Mem_Data      2168215      0.00%      0.00%
system.ruby.L2Cache_Controller.SS_MB.Exclusive_Unblock           20      0.00%      0.00%
system.ruby.L2Cache_Controller.MT_MB.L1_GETS         1385      0.00%      0.00%
system.ruby.L2Cache_Controller.MT_MB.Exclusive_Unblock      4421186      0.00%      0.00%
system.ruby.L2Cache_Controller.MT_IIB.L1_GETS            3      0.00%      0.00%
system.ruby.L2Cache_Controller.MT_IIB.WB_Data        32250      0.00%      0.00%
system.ruby.L2Cache_Controller.MT_IIB.WB_Data_clean          341      0.00%      0.00%
system.ruby.L2Cache_Controller.MT_IIB.Unblock           77      0.00%      0.00%
system.ruby.L2Cache_Controller.MT_IB.WB_Data           74      0.00%      0.00%
system.ruby.L2Cache_Controller.MT_IB.WB_Data_clean            3      0.00%      0.00%
system.ruby.L2Cache_Controller.MT_SB.Unblock        32591      0.00%      0.00%

---------- End Simulation Statistics   ----------
