
---------- Begin Simulation Statistics ----------
sim_seconds                                  5.685521                       # Number of seconds simulated
sim_ticks                                5685520878000                       # Number of ticks simulated
final_tick                               5685520878000                       # Number of ticks from beginning of simulation (restored from checkpoints and never reset)
sim_freq                                 1000000000000                       # Frequency of simulated ticks
host_inst_rate                                 128026                       # Simulator instruction rate (inst/s)
host_op_rate                                   357975                       # Simulator op (including micro ops) rate (op/s)
host_tick_rate                              213980163                       # Simulator tick rate (ticks/s)
host_mem_usage                                4392572                       # Number of bytes of host memory used
host_seconds                                 26570.32                       # Real time elapsed on the host
sim_insts                                  3401689492                       # Number of instructions simulated
sim_ops                                    9511497996                       # Number of ops (including micro ops) simulated
system.voltage_domain.voltage                       1                       # Voltage in Volts
system.clk_domain.clock                          1000                       # Clock period in ticks
system.mem_ctrls.bytes_read::ruby.dir_cntrl0    553821120                       # Number of bytes read from this memory
system.mem_ctrls.bytes_read::total          553821120                       # Number of bytes read from this memory
system.mem_ctrls.bytes_written::ruby.dir_cntrl0    234688960                       # Number of bytes written to this memory
system.mem_ctrls.bytes_written::total       234688960                       # Number of bytes written to this memory
system.mem_ctrls.num_reads::ruby.dir_cntrl0      8653455                       # Number of read requests responded to by this memory
system.mem_ctrls.num_reads::total             8653455                       # Number of read requests responded to by this memory
system.mem_ctrls.num_writes::ruby.dir_cntrl0      3667015                       # Number of write requests responded to by this memory
system.mem_ctrls.num_writes::total            3667015                       # Number of write requests responded to by this memory
system.mem_ctrls.bw_read::ruby.dir_cntrl0     97409038                       # Total read bandwidth from this memory (bytes/s)
system.mem_ctrls.bw_read::total              97409038                       # Total read bandwidth from this memory (bytes/s)
system.mem_ctrls.bw_write::ruby.dir_cntrl0     41278357                       # Write bandwidth from this memory (bytes/s)
system.mem_ctrls.bw_write::total             41278357                       # Write bandwidth from this memory (bytes/s)
system.mem_ctrls.bw_total::ruby.dir_cntrl0    138687395                       # Total bandwidth to/from this memory (bytes/s)
system.mem_ctrls.bw_total::total            138687395                       # Total bandwidth to/from this memory (bytes/s)
system.mem_ctrls.memReq                      12320470                       # Total number of memory requests
system.mem_ctrls.memRead                      8653455                       # Number of memory reads
system.mem_ctrls.memWrite                     3667015                       # Number of memory writes
system.mem_ctrls.memRefresh                  71766878                       # Number of memory refreshes
system.mem_ctrls.memWaitCycles               29734932                       # Delay stalled at the head of the bank queue
system.mem_ctrls.memInputQ                      10228                       # Delay in the input queue
system.mem_ctrls.memBankQ                      144450                       # Delay behind the head of the bank queue
system.mem_ctrls.totalStalls                 29889610                       # Total number of stall cycles
system.mem_ctrls.stallsPerReq                2.426012                       # Expected number of stall cycles per request
system.mem_ctrls.memBankBusy                 29299688                       # memory stalls due to busy bank
system.mem_ctrls.memBusBusy                    277046                       # memory stalls due to busy bus
system.mem_ctrls.memReadWriteBusy                5205                       # memory stalls due to read write turnaround
system.mem_ctrls.memDataBusBusy                 71377                       # memory stalls due to read read turnaround
system.mem_ctrls.memArbWait                     81616                       # memory stalls due to arbitration
system.mem_ctrls.memBankCount            |      385061      3.13%      3.13% |      384009      3.12%      6.24% |      384086      3.12%      9.36% |      383954      3.12%     12.48% |      384393      3.12%     15.60% |      384088      3.12%     18.71% |      383804      3.12%     21.83% |      384099      3.12%     24.95% |      383832      3.12%     28.06% |      384654      3.12%     31.18% |      384906      3.12%     34.31% |      384541      3.12%     37.43% |      383978      3.12%     40.55% |      384671      3.12%     43.67% |      383728      3.11%     46.78% |      384959      3.12%     49.91% |      385979      3.13%     53.04% |      385317      3.13%     56.17% |      385777      3.13%     59.30% |      384846      3.12%     62.42% |      386176      3.13%     65.56% |      386411      3.14%     68.69% |      385584      3.13%     71.82% |      386759      3.14%     74.96% |      386236      3.13%     78.10% |      385829      3.13%     81.23% |      385171      3.13%     84.35% |      385218      3.13%     87.48% |      385110      3.13%     90.61% |      385559      3.13%     93.74% |      385975      3.13%     96.87% |      385760      3.13%    100.00% # Number of accesses per bank
system.mem_ctrls.memBankCount::total         12320470                       # Number of accesses per bank
system.cpu_voltage_domain.voltage                   1                       # Voltage in Volts
system.cpu_clk_domain.clock                       500                       # Clock period in ticks
system.cpu0.apic_clk_domain.clock                8000                       # Clock period in ticks
system.cpu0.workload.num_syscalls                 180                       # Number of system calls
system.cpu0.numCycles                     11371041756                       # number of cpu cycles simulated
system.cpu0.numWorkItemsStarted                     0                       # number of work items this cpu started
system.cpu0.numWorkItemsCompleted                   0                       # number of work items this cpu completed
system.cpu0.committedInsts                 3169380564                       # Number of instructions committed
system.cpu0.committedOps                   9046905216                       # Number of ops (including micro ops) committed
system.cpu0.num_int_alu_accesses           8534611944                       # Number of integer alu accesses
system.cpu0.num_fp_alu_accesses             216644550                       # Number of float alu accesses
system.cpu0.num_func_calls                  304262268                       # number of times a function call or return occured
system.cpu0.num_conditional_control_insts    699868317                       # number of instructions that are conditional controls
system.cpu0.num_int_insts                  8534611944                       # number of integer instructions
system.cpu0.num_fp_insts                    216644550                       # number of float instructions
system.cpu0.num_int_register_reads        17981927570                       # number of times the integer registers were read
system.cpu0.num_int_register_writes        8500024792                       # number of times the integer registers were written
system.cpu0.num_fp_register_reads           348151590                       # number of times the floating registers were read
system.cpu0.num_fp_register_writes          170275978                       # number of times the floating registers were written
system.cpu0.num_cc_register_reads          7228507628                       # number of times the CC registers were read
system.cpu0.num_cc_register_writes         2709005325                       # number of times the CC registers were written
system.cpu0.num_mem_refs                   1381656070                       # number of memory refs
system.cpu0.num_load_insts                  839533206                       # Number of load instructions
system.cpu0.num_store_insts                 542122864                       # Number of store instructions
system.cpu0.num_idle_cycles                  0.002000                       # Number of idle cycles
system.cpu0.num_busy_cycles              11371041755.998001                       # Number of busy cycles
system.cpu0.not_idle_fraction                1.000000                       # Percentage of non-idle cycles
system.cpu0.idle_fraction                    0.000000                       # Percentage of idle cycles
system.cpu0.Branches                       1150105823                       # Number of branches fetched
system.cpu0.op_class::No_OpClass            177947950      1.97%      1.97% # Class of executed instruction
system.cpu0.op_class::IntAlu               6557072067     72.48%     74.45% # Class of executed instruction
system.cpu0.op_class::IntMult                     389      0.00%     74.45% # Class of executed instruction
system.cpu0.op_class::IntDiv                759953519      8.40%     82.85% # Class of executed instruction
system.cpu0.op_class::FloatAdd              170275221      1.88%     84.73% # Class of executed instruction
system.cpu0.op_class::FloatCmp                      0      0.00%     84.73% # Class of executed instruction
system.cpu0.op_class::FloatCvt                      0      0.00%     84.73% # Class of executed instruction
system.cpu0.op_class::FloatMult                     0      0.00%     84.73% # Class of executed instruction
system.cpu0.op_class::FloatDiv                      0      0.00%     84.73% # Class of executed instruction
system.cpu0.op_class::FloatSqrt                     0      0.00%     84.73% # Class of executed instruction
system.cpu0.op_class::SimdAdd                       0      0.00%     84.73% # Class of executed instruction
system.cpu0.op_class::SimdAddAcc                    0      0.00%     84.73% # Class of executed instruction
system.cpu0.op_class::SimdAlu                       0      0.00%     84.73% # Class of executed instruction
system.cpu0.op_class::SimdCmp                       0      0.00%     84.73% # Class of executed instruction
system.cpu0.op_class::SimdCvt                       0      0.00%     84.73% # Class of executed instruction
system.cpu0.op_class::SimdMisc                      0      0.00%     84.73% # Class of executed instruction
system.cpu0.op_class::SimdMult                      0      0.00%     84.73% # Class of executed instruction
system.cpu0.op_class::SimdMultAcc                   0      0.00%     84.73% # Class of executed instruction
system.cpu0.op_class::SimdShift                     0      0.00%     84.73% # Class of executed instruction
system.cpu0.op_class::SimdShiftAcc                  0      0.00%     84.73% # Class of executed instruction
system.cpu0.op_class::SimdSqrt                      0      0.00%     84.73% # Class of executed instruction
system.cpu0.op_class::SimdFloatAdd                  0      0.00%     84.73% # Class of executed instruction
system.cpu0.op_class::SimdFloatAlu                  0      0.00%     84.73% # Class of executed instruction
system.cpu0.op_class::SimdFloatCmp                  0      0.00%     84.73% # Class of executed instruction
system.cpu0.op_class::SimdFloatCvt                  0      0.00%     84.73% # Class of executed instruction
system.cpu0.op_class::SimdFloatDiv                  0      0.00%     84.73% # Class of executed instruction
system.cpu0.op_class::SimdFloatMisc                 0      0.00%     84.73% # Class of executed instruction
system.cpu0.op_class::SimdFloatMult                 0      0.00%     84.73% # Class of executed instruction
system.cpu0.op_class::SimdFloatMultAcc              0      0.00%     84.73% # Class of executed instruction
system.cpu0.op_class::SimdFloatSqrt                 0      0.00%     84.73% # Class of executed instruction
system.cpu0.op_class::MemRead               839533206      9.28%     94.01% # Class of executed instruction
system.cpu0.op_class::MemWrite              542122864      5.99%    100.00% # Class of executed instruction
system.cpu0.op_class::IprAccess                     0      0.00%    100.00% # Class of executed instruction
system.cpu0.op_class::InstPrefetch                  0      0.00%    100.00% # Class of executed instruction
system.cpu0.op_class::total                9046905216                       # Class of executed instruction
system.cpu1.apic_clk_domain.clock                8000                       # Clock period in ticks
system.cpu1.numCycles                     11355382925                       # number of cpu cycles simulated
system.cpu1.numWorkItemsStarted                     0                       # number of work items this cpu started
system.cpu1.numWorkItemsCompleted                   0                       # number of work items this cpu completed
system.cpu1.committedInsts                   58077232                       # Number of instructions committed
system.cpu1.committedOps                    116148195                       # Number of ops (including micro ops) committed
system.cpu1.num_int_alu_accesses             87175319                       # Number of integer alu accesses
system.cpu1.num_fp_alu_accesses              56894279                       # Number of float alu accesses
system.cpu1.num_func_calls                     161815                       # number of times a function call or return occured
system.cpu1.num_conditional_control_insts      7134452                       # number of instructions that are conditional controls
system.cpu1.num_int_insts                    87175319                       # number of integer instructions
system.cpu1.num_fp_insts                     56894279                       # number of float instructions
system.cpu1.num_int_register_reads          153196448                       # number of times the integer registers were read
system.cpu1.num_int_register_writes          52032168                       # number of times the integer registers were written
system.cpu1.num_fp_register_reads            86190677                       # number of times the floating registers were read
system.cpu1.num_fp_register_writes           56813392                       # number of times the floating registers were written
system.cpu1.num_cc_register_reads            42887640                       # number of times the CC registers were read
system.cpu1.num_cc_register_writes           42862530                       # number of times the CC registers were written
system.cpu1.num_mem_refs                     28338623                       # number of memory refs
system.cpu1.num_load_insts                   28176742                       # Number of load instructions
system.cpu1.num_store_insts                    161881                       # Number of store instructions
system.cpu1.num_idle_cycles              11078728714.259445                       # Number of idle cycles
system.cpu1.num_busy_cycles              276654210.740556                       # Number of busy cycles
system.cpu1.not_idle_fraction                0.024363                       # Percentage of non-idle cycles
system.cpu1.idle_fraction                    0.975637                       # Percentage of idle cycles
system.cpu1.Branches                          7383422                       # Number of branches fetched
system.cpu1.op_class::No_OpClass                    2      0.00%      0.00% # Class of executed instruction
system.cpu1.op_class::IntAlu                 58594024     50.45%     50.45% # Class of executed instruction
system.cpu1.op_class::IntMult                  242657      0.21%     50.66% # Class of executed instruction
system.cpu1.op_class::IntDiv                       14      0.00%     50.66% # Class of executed instruction
system.cpu1.op_class::FloatAdd               28972875     24.94%     75.60% # Class of executed instruction
system.cpu1.op_class::FloatCmp                      0      0.00%     75.60% # Class of executed instruction
system.cpu1.op_class::FloatCvt                      0      0.00%     75.60% # Class of executed instruction
system.cpu1.op_class::FloatMult                     0      0.00%     75.60% # Class of executed instruction
system.cpu1.op_class::FloatDiv                      0      0.00%     75.60% # Class of executed instruction
system.cpu1.op_class::FloatSqrt                     0      0.00%     75.60% # Class of executed instruction
system.cpu1.op_class::SimdAdd                       0      0.00%     75.60% # Class of executed instruction
system.cpu1.op_class::SimdAddAcc                    0      0.00%     75.60% # Class of executed instruction
system.cpu1.op_class::SimdAlu                       0      0.00%     75.60% # Class of executed instruction
system.cpu1.op_class::SimdCmp                       0      0.00%     75.60% # Class of executed instruction
system.cpu1.op_class::SimdCvt                       0      0.00%     75.60% # Class of executed instruction
system.cpu1.op_class::SimdMisc                      0      0.00%     75.60% # Class of executed instruction
system.cpu1.op_class::SimdMult                      0      0.00%     75.60% # Class of executed instruction
system.cpu1.op_class::SimdMultAcc                   0      0.00%     75.60% # Class of executed instruction
system.cpu1.op_class::SimdShift                     0      0.00%     75.60% # Class of executed instruction
system.cpu1.op_class::SimdShiftAcc                  0      0.00%     75.60% # Class of executed instruction
system.cpu1.op_class::SimdSqrt                      0      0.00%     75.60% # Class of executed instruction
system.cpu1.op_class::SimdFloatAdd                  0      0.00%     75.60% # Class of executed instruction
system.cpu1.op_class::SimdFloatAlu                  0      0.00%     75.60% # Class of executed instruction
system.cpu1.op_class::SimdFloatCmp                  0      0.00%     75.60% # Class of executed instruction
system.cpu1.op_class::SimdFloatCvt                  0      0.00%     75.60% # Class of executed instruction
system.cpu1.op_class::SimdFloatDiv                  0      0.00%     75.60% # Class of executed instruction
system.cpu1.op_class::SimdFloatMisc                 0      0.00%     75.60% # Class of executed instruction
system.cpu1.op_class::SimdFloatMult                 0      0.00%     75.60% # Class of executed instruction
system.cpu1.op_class::SimdFloatMultAcc              0      0.00%     75.60% # Class of executed instruction
system.cpu1.op_class::SimdFloatSqrt                 0      0.00%     75.60% # Class of executed instruction
system.cpu1.op_class::MemRead                28176742     24.26%     99.86% # Class of executed instruction
system.cpu1.op_class::MemWrite                 161881      0.14%    100.00% # Class of executed instruction
system.cpu1.op_class::IprAccess                     0      0.00%    100.00% # Class of executed instruction
system.cpu1.op_class::InstPrefetch                  0      0.00%    100.00% # Class of executed instruction
system.cpu1.op_class::total                 116148195                       # Class of executed instruction
system.cpu2.apic_clk_domain.clock                8000                       # Clock period in ticks
system.cpu2.numCycles                     11364139820                       # number of cpu cycles simulated
system.cpu2.numWorkItemsStarted                     0                       # number of work items this cpu started
system.cpu2.numWorkItemsCompleted                   0                       # number of work items this cpu completed
system.cpu2.committedInsts                   58077232                       # Number of instructions committed
system.cpu2.committedOps                    116148195                       # Number of ops (including micro ops) committed
system.cpu2.num_int_alu_accesses             87175319                       # Number of integer alu accesses
system.cpu2.num_fp_alu_accesses              56894279                       # Number of float alu accesses
system.cpu2.num_func_calls                     161815                       # number of times a function call or return occured
system.cpu2.num_conditional_control_insts      7134452                       # number of instructions that are conditional controls
system.cpu2.num_int_insts                    87175319                       # number of integer instructions
system.cpu2.num_fp_insts                     56894279                       # number of float instructions
system.cpu2.num_int_register_reads          153196448                       # number of times the integer registers were read
system.cpu2.num_int_register_writes          52032168                       # number of times the integer registers were written
system.cpu2.num_fp_register_reads            86190677                       # number of times the floating registers were read
system.cpu2.num_fp_register_writes           56813392                       # number of times the floating registers were written
system.cpu2.num_cc_register_reads            42887640                       # number of times the CC registers were read
system.cpu2.num_cc_register_writes           42862530                       # number of times the CC registers were written
system.cpu2.num_mem_refs                     28338623                       # number of memory refs
system.cpu2.num_load_insts                   28176742                       # Number of load instructions
system.cpu2.num_store_insts                    161881                       # Number of store instructions
system.cpu2.num_idle_cycles              11078521166.621279                       # Number of idle cycles
system.cpu2.num_busy_cycles              285618653.378721                       # Number of busy cycles
system.cpu2.not_idle_fraction                0.025133                       # Percentage of non-idle cycles
system.cpu2.idle_fraction                    0.974867                       # Percentage of idle cycles
system.cpu2.Branches                          7383422                       # Number of branches fetched
system.cpu2.op_class::No_OpClass                    2      0.00%      0.00% # Class of executed instruction
system.cpu2.op_class::IntAlu                 58594024     50.45%     50.45% # Class of executed instruction
system.cpu2.op_class::IntMult                  242657      0.21%     50.66% # Class of executed instruction
system.cpu2.op_class::IntDiv                       14      0.00%     50.66% # Class of executed instruction
system.cpu2.op_class::FloatAdd               28972875     24.94%     75.60% # Class of executed instruction
system.cpu2.op_class::FloatCmp                      0      0.00%     75.60% # Class of executed instruction
system.cpu2.op_class::FloatCvt                      0      0.00%     75.60% # Class of executed instruction
system.cpu2.op_class::FloatMult                     0      0.00%     75.60% # Class of executed instruction
system.cpu2.op_class::FloatDiv                      0      0.00%     75.60% # Class of executed instruction
system.cpu2.op_class::FloatSqrt                     0      0.00%     75.60% # Class of executed instruction
system.cpu2.op_class::SimdAdd                       0      0.00%     75.60% # Class of executed instruction
system.cpu2.op_class::SimdAddAcc                    0      0.00%     75.60% # Class of executed instruction
system.cpu2.op_class::SimdAlu                       0      0.00%     75.60% # Class of executed instruction
system.cpu2.op_class::SimdCmp                       0      0.00%     75.60% # Class of executed instruction
system.cpu2.op_class::SimdCvt                       0      0.00%     75.60% # Class of executed instruction
system.cpu2.op_class::SimdMisc                      0      0.00%     75.60% # Class of executed instruction
system.cpu2.op_class::SimdMult                      0      0.00%     75.60% # Class of executed instruction
system.cpu2.op_class::SimdMultAcc                   0      0.00%     75.60% # Class of executed instruction
system.cpu2.op_class::SimdShift                     0      0.00%     75.60% # Class of executed instruction
system.cpu2.op_class::SimdShiftAcc                  0      0.00%     75.60% # Class of executed instruction
system.cpu2.op_class::SimdSqrt                      0      0.00%     75.60% # Class of executed instruction
system.cpu2.op_class::SimdFloatAdd                  0      0.00%     75.60% # Class of executed instruction
system.cpu2.op_class::SimdFloatAlu                  0      0.00%     75.60% # Class of executed instruction
system.cpu2.op_class::SimdFloatCmp                  0      0.00%     75.60% # Class of executed instruction
system.cpu2.op_class::SimdFloatCvt                  0      0.00%     75.60% # Class of executed instruction
system.cpu2.op_class::SimdFloatDiv                  0      0.00%     75.60% # Class of executed instruction
system.cpu2.op_class::SimdFloatMisc                 0      0.00%     75.60% # Class of executed instruction
system.cpu2.op_class::SimdFloatMult                 0      0.00%     75.60% # Class of executed instruction
system.cpu2.op_class::SimdFloatMultAcc              0      0.00%     75.60% # Class of executed instruction
system.cpu2.op_class::SimdFloatSqrt                 0      0.00%     75.60% # Class of executed instruction
system.cpu2.op_class::MemRead                28176742     24.26%     99.86% # Class of executed instruction
system.cpu2.op_class::MemWrite                 161881      0.14%    100.00% # Class of executed instruction
system.cpu2.op_class::IprAccess                     0      0.00%    100.00% # Class of executed instruction
system.cpu2.op_class::InstPrefetch                  0      0.00%    100.00% # Class of executed instruction
system.cpu2.op_class::total                 116148195                       # Class of executed instruction
system.cpu3.apic_clk_domain.clock                8000                       # Clock period in ticks
system.cpu3.numCycles                     11365921431                       # number of cpu cycles simulated
system.cpu3.numWorkItemsStarted                     0                       # number of work items this cpu started
system.cpu3.numWorkItemsCompleted                   0                       # number of work items this cpu completed
system.cpu3.committedInsts                   58077232                       # Number of instructions committed
system.cpu3.committedOps                    116148195                       # Number of ops (including micro ops) committed
system.cpu3.num_int_alu_accesses             87175319                       # Number of integer alu accesses
system.cpu3.num_fp_alu_accesses              56894279                       # Number of float alu accesses
system.cpu3.num_func_calls                     161815                       # number of times a function call or return occured
system.cpu3.num_conditional_control_insts      7134452                       # number of instructions that are conditional controls
system.cpu3.num_int_insts                    87175319                       # number of integer instructions
system.cpu3.num_fp_insts                     56894279                       # number of float instructions
system.cpu3.num_int_register_reads          153196448                       # number of times the integer registers were read
system.cpu3.num_int_register_writes          52032168                       # number of times the integer registers were written
system.cpu3.num_fp_register_reads            86190677                       # number of times the floating registers were read
system.cpu3.num_fp_register_writes           56813392                       # number of times the floating registers were written
system.cpu3.num_cc_register_reads            42887640                       # number of times the CC registers were read
system.cpu3.num_cc_register_writes           42862530                       # number of times the CC registers were written
system.cpu3.num_mem_refs                     28338623                       # number of memory refs
system.cpu3.num_load_insts                   28176742                       # Number of load instructions
system.cpu3.num_store_insts                    161881                       # Number of store instructions
system.cpu3.num_idle_cycles              11078477574.885559                       # Number of idle cycles
system.cpu3.num_busy_cycles              287443856.114441                       # Number of busy cycles
system.cpu3.not_idle_fraction                0.025290                       # Percentage of non-idle cycles
system.cpu3.idle_fraction                    0.974710                       # Percentage of idle cycles
system.cpu3.Branches                          7383422                       # Number of branches fetched
system.cpu3.op_class::No_OpClass                    2      0.00%      0.00% # Class of executed instruction
system.cpu3.op_class::IntAlu                 58594024     50.45%     50.45% # Class of executed instruction
system.cpu3.op_class::IntMult                  242657      0.21%     50.66% # Class of executed instruction
system.cpu3.op_class::IntDiv                       14      0.00%     50.66% # Class of executed instruction
system.cpu3.op_class::FloatAdd               28972875     24.94%     75.60% # Class of executed instruction
system.cpu3.op_class::FloatCmp                      0      0.00%     75.60% # Class of executed instruction
system.cpu3.op_class::FloatCvt                      0      0.00%     75.60% # Class of executed instruction
system.cpu3.op_class::FloatMult                     0      0.00%     75.60% # Class of executed instruction
system.cpu3.op_class::FloatDiv                      0      0.00%     75.60% # Class of executed instruction
system.cpu3.op_class::FloatSqrt                     0      0.00%     75.60% # Class of executed instruction
system.cpu3.op_class::SimdAdd                       0      0.00%     75.60% # Class of executed instruction
system.cpu3.op_class::SimdAddAcc                    0      0.00%     75.60% # Class of executed instruction
system.cpu3.op_class::SimdAlu                       0      0.00%     75.60% # Class of executed instruction
system.cpu3.op_class::SimdCmp                       0      0.00%     75.60% # Class of executed instruction
system.cpu3.op_class::SimdCvt                       0      0.00%     75.60% # Class of executed instruction
system.cpu3.op_class::SimdMisc                      0      0.00%     75.60% # Class of executed instruction
system.cpu3.op_class::SimdMult                      0      0.00%     75.60% # Class of executed instruction
system.cpu3.op_class::SimdMultAcc                   0      0.00%     75.60% # Class of executed instruction
system.cpu3.op_class::SimdShift                     0      0.00%     75.60% # Class of executed instruction
system.cpu3.op_class::SimdShiftAcc                  0      0.00%     75.60% # Class of executed instruction
system.cpu3.op_class::SimdSqrt                      0      0.00%     75.60% # Class of executed instruction
system.cpu3.op_class::SimdFloatAdd                  0      0.00%     75.60% # Class of executed instruction
system.cpu3.op_class::SimdFloatAlu                  0      0.00%     75.60% # Class of executed instruction
system.cpu3.op_class::SimdFloatCmp                  0      0.00%     75.60% # Class of executed instruction
system.cpu3.op_class::SimdFloatCvt                  0      0.00%     75.60% # Class of executed instruction
system.cpu3.op_class::SimdFloatDiv                  0      0.00%     75.60% # Class of executed instruction
system.cpu3.op_class::SimdFloatMisc                 0      0.00%     75.60% # Class of executed instruction
system.cpu3.op_class::SimdFloatMult                 0      0.00%     75.60% # Class of executed instruction
system.cpu3.op_class::SimdFloatMultAcc              0      0.00%     75.60% # Class of executed instruction
system.cpu3.op_class::SimdFloatSqrt                 0      0.00%     75.60% # Class of executed instruction
system.cpu3.op_class::MemRead                28176742     24.26%     99.86% # Class of executed instruction
system.cpu3.op_class::MemWrite                 161881      0.14%    100.00% # Class of executed instruction
system.cpu3.op_class::IprAccess                     0      0.00%    100.00% # Class of executed instruction
system.cpu3.op_class::InstPrefetch                  0      0.00%    100.00% # Class of executed instruction
system.cpu3.op_class::total                 116148195                       # Class of executed instruction
system.cpu4.apic_clk_domain.clock                8000                       # Clock period in ticks
system.cpu4.numCycles                     11370787316                       # number of cpu cycles simulated
system.cpu4.numWorkItemsStarted                     0                       # number of work items this cpu started
system.cpu4.numWorkItemsCompleted                   0                       # number of work items this cpu completed
system.cpu4.committedInsts                   58077232                       # Number of instructions committed
system.cpu4.committedOps                    116148195                       # Number of ops (including micro ops) committed
system.cpu4.num_int_alu_accesses             87175319                       # Number of integer alu accesses
system.cpu4.num_fp_alu_accesses              56894279                       # Number of float alu accesses
system.cpu4.num_func_calls                     161815                       # number of times a function call or return occured
system.cpu4.num_conditional_control_insts      7134452                       # number of instructions that are conditional controls
system.cpu4.num_int_insts                    87175319                       # number of integer instructions
system.cpu4.num_fp_insts                     56894279                       # number of float instructions
system.cpu4.num_int_register_reads          153196448                       # number of times the integer registers were read
system.cpu4.num_int_register_writes          52032168                       # number of times the integer registers were written
system.cpu4.num_fp_register_reads            86190677                       # number of times the floating registers were read
system.cpu4.num_fp_register_writes           56813392                       # number of times the floating registers were written
system.cpu4.num_cc_register_reads            42887640                       # number of times the CC registers were read
system.cpu4.num_cc_register_writes           42862530                       # number of times the CC registers were written
system.cpu4.num_mem_refs                     28338623                       # number of memory refs
system.cpu4.num_load_insts                   28176742                       # Number of load instructions
system.cpu4.num_store_insts                    161881                       # Number of store instructions
system.cpu4.num_idle_cycles              11078355029.651680                       # Number of idle cycles
system.cpu4.num_busy_cycles              292432286.348320                       # Number of busy cycles
system.cpu4.not_idle_fraction                0.025718                       # Percentage of non-idle cycles
system.cpu4.idle_fraction                    0.974282                       # Percentage of idle cycles
system.cpu4.Branches                          7383422                       # Number of branches fetched
system.cpu4.op_class::No_OpClass                    2      0.00%      0.00% # Class of executed instruction
system.cpu4.op_class::IntAlu                 58594024     50.45%     50.45% # Class of executed instruction
system.cpu4.op_class::IntMult                  242657      0.21%     50.66% # Class of executed instruction
system.cpu4.op_class::IntDiv                       14      0.00%     50.66% # Class of executed instruction
system.cpu4.op_class::FloatAdd               28972875     24.94%     75.60% # Class of executed instruction
system.cpu4.op_class::FloatCmp                      0      0.00%     75.60% # Class of executed instruction
system.cpu4.op_class::FloatCvt                      0      0.00%     75.60% # Class of executed instruction
system.cpu4.op_class::FloatMult                     0      0.00%     75.60% # Class of executed instruction
system.cpu4.op_class::FloatDiv                      0      0.00%     75.60% # Class of executed instruction
system.cpu4.op_class::FloatSqrt                     0      0.00%     75.60% # Class of executed instruction
system.cpu4.op_class::SimdAdd                       0      0.00%     75.60% # Class of executed instruction
system.cpu4.op_class::SimdAddAcc                    0      0.00%     75.60% # Class of executed instruction
system.cpu4.op_class::SimdAlu                       0      0.00%     75.60% # Class of executed instruction
system.cpu4.op_class::SimdCmp                       0      0.00%     75.60% # Class of executed instruction
system.cpu4.op_class::SimdCvt                       0      0.00%     75.60% # Class of executed instruction
system.cpu4.op_class::SimdMisc                      0      0.00%     75.60% # Class of executed instruction
system.cpu4.op_class::SimdMult                      0      0.00%     75.60% # Class of executed instruction
system.cpu4.op_class::SimdMultAcc                   0      0.00%     75.60% # Class of executed instruction
system.cpu4.op_class::SimdShift                     0      0.00%     75.60% # Class of executed instruction
system.cpu4.op_class::SimdShiftAcc                  0      0.00%     75.60% # Class of executed instruction
system.cpu4.op_class::SimdSqrt                      0      0.00%     75.60% # Class of executed instruction
system.cpu4.op_class::SimdFloatAdd                  0      0.00%     75.60% # Class of executed instruction
system.cpu4.op_class::SimdFloatAlu                  0      0.00%     75.60% # Class of executed instruction
system.cpu4.op_class::SimdFloatCmp                  0      0.00%     75.60% # Class of executed instruction
system.cpu4.op_class::SimdFloatCvt                  0      0.00%     75.60% # Class of executed instruction
system.cpu4.op_class::SimdFloatDiv                  0      0.00%     75.60% # Class of executed instruction
system.cpu4.op_class::SimdFloatMisc                 0      0.00%     75.60% # Class of executed instruction
system.cpu4.op_class::SimdFloatMult                 0      0.00%     75.60% # Class of executed instruction
system.cpu4.op_class::SimdFloatMultAcc              0      0.00%     75.60% # Class of executed instruction
system.cpu4.op_class::SimdFloatSqrt                 0      0.00%     75.60% # Class of executed instruction
system.cpu4.op_class::MemRead                28176742     24.26%     99.86% # Class of executed instruction
system.cpu4.op_class::MemWrite                 161881      0.14%    100.00% # Class of executed instruction
system.cpu4.op_class::IprAccess                     0      0.00%    100.00% # Class of executed instruction
system.cpu4.op_class::InstPrefetch                  0      0.00%    100.00% # Class of executed instruction
system.cpu4.op_class::total                 116148195                       # Class of executed instruction
system.ruby.clk_domain.clock                      500                       # Clock period in ticks
system.ruby.delayHist::bucket_size                 16                       # delay histogram for all message
system.ruby.delayHist::max_bucket                 159                       # delay histogram for all message
system.ruby.delayHist::samples               83229728                       # delay histogram for all message
system.ruby.delayHist::mean                  0.439359                       # delay histogram for all message
system.ruby.delayHist::stdev                 1.794585                       # delay histogram for all message
system.ruby.delayHist                    |    83205037     99.97%     99.97% |       24402      0.03%    100.00% |         214      0.00%    100.00% |          61      0.00%    100.00% |          10      0.00%    100.00% |           3      0.00%    100.00% |           0      0.00%    100.00% |           0      0.00%    100.00% |           0      0.00%    100.00% |           1      0.00%    100.00% # delay histogram for all message
system.ruby.delayHist::total                 83229728                       # delay histogram for all message
system.ruby.outstanding_req_hist::bucket_size            1                      
system.ruby.outstanding_req_hist::max_bucket            9                      
system.ruby.outstanding_req_hist::samples   5924185391                      
system.ruby.outstanding_req_hist::mean       1.000199                      
system.ruby.outstanding_req_hist::gmean      1.000138                      
system.ruby.outstanding_req_hist::stdev      0.014110                      
system.ruby.outstanding_req_hist         |           0      0.00%      0.00% |  5923005679     99.98%     99.98% |     1179712      0.02%    100.00% |           0      0.00%    100.00% |           0      0.00%    100.00% |           0      0.00%    100.00% |           0      0.00%    100.00% |           0      0.00%    100.00% |           0      0.00%    100.00% |           0      0.00%    100.00%
system.ruby.outstanding_req_hist::total    5924185391                      
system.ruby.latency_hist::bucket_size              32                      
system.ruby.latency_hist::max_bucket              319                      
system.ruby.latency_hist::samples          5924185391                      
system.ruby.latency_hist::mean               1.112636                      
system.ruby.latency_hist::gmean              1.007589                      
system.ruby.latency_hist::stdev              2.799811                      
system.ruby.latency_hist                 |  5915519341     99.85%     99.85% |     3887731      0.07%     99.92% |     4730707      0.08%    100.00% |       47546      0.00%    100.00% |          61      0.00%    100.00% |           3      0.00%    100.00% |           2      0.00%    100.00% |           0      0.00%    100.00% |           0      0.00%    100.00% |           0      0.00%    100.00%
system.ruby.latency_hist::total            5924185391                      
system.ruby.hit_latency_hist::bucket_size           32                      
system.ruby.hit_latency_hist::max_bucket          319                      
system.ruby.hit_latency_hist::samples      5924185391                      
system.ruby.hit_latency_hist::mean           1.112636                      
system.ruby.hit_latency_hist::gmean          1.007589                      
system.ruby.hit_latency_hist::stdev          2.799811                      
system.ruby.hit_latency_hist             |  5915519341     99.85%     99.85% |     3887731      0.07%     99.92% |     4730707      0.08%    100.00% |       47546      0.00%    100.00% |          61      0.00%    100.00% |           3      0.00%    100.00% |           2      0.00%    100.00% |           0      0.00%    100.00% |           0      0.00%    100.00% |           0      0.00%    100.00%
system.ruby.hit_latency_hist::total        5924185391                      
system.ruby.l0_cntrl0.Dcache.demand_hits   1377307453                       # Number of cache demand hits
system.ruby.l0_cntrl0.Dcache.demand_misses      4348681                       # Number of cache demand misses
system.ruby.l0_cntrl0.Dcache.demand_accesses   1381656134                       # Number of cache demand accesses
system.ruby.l0_cntrl0.Icache.demand_hits   4129962865                       # Number of cache demand hits
system.ruby.l0_cntrl0.Icache.demand_misses         9492                       # Number of cache demand misses
system.ruby.l0_cntrl0.Icache.demand_accesses   4129972357                       # Number of cache demand accesses
system.ruby.l0_cntrl0.Zcache.demand_hits    244163977                       # Number of cache demand hits
system.ruby.l0_cntrl0.Zcache.demand_misses      2751155                       # Number of cache demand misses
system.ruby.l0_cntrl0.Zcache.demand_accesses    246915132                       # Number of cache demand accesses
system.ruby.l0_cntrl1.Dcache.demand_hits     26839044                       # Number of cache demand hits
system.ruby.l0_cntrl1.Dcache.demand_misses      1794491                       # Number of cache demand misses
system.ruby.l0_cntrl1.Dcache.demand_accesses     28633535                       # Number of cache demand accesses
system.ruby.l0_cntrl1.Icache.demand_hits     74503933                       # Number of cache demand hits
system.ruby.l0_cntrl1.Icache.demand_misses         1757                       # Number of cache demand misses
system.ruby.l0_cntrl1.Icache.demand_accesses     74505690                       # Number of cache demand accesses
system.ruby.l0_cntrl1.Zcache.demand_hits       140624                       # Number of cache demand hits
system.ruby.l0_cntrl1.Zcache.demand_misses        11452                       # Number of cache demand misses
system.ruby.l0_cntrl1.Zcache.demand_accesses       152076                       # Number of cache demand accesses
system.ruby.l0_cntrl2.Dcache.demand_hits     26840716                       # Number of cache demand hits
system.ruby.l0_cntrl2.Dcache.demand_misses      1792819                       # Number of cache demand misses
system.ruby.l0_cntrl2.Dcache.demand_accesses     28633535                       # Number of cache demand accesses
system.ruby.l0_cntrl2.Icache.demand_hits     74504329                       # Number of cache demand hits
system.ruby.l0_cntrl2.Icache.demand_misses         1361                       # Number of cache demand misses
system.ruby.l0_cntrl2.Icache.demand_accesses     74505690                       # Number of cache demand accesses
system.ruby.l0_cntrl2.Zcache.demand_hits       145773                       # Number of cache demand hits
system.ruby.l0_cntrl2.Zcache.demand_misses        11643                       # Number of cache demand misses
system.ruby.l0_cntrl2.Zcache.demand_accesses       157416                       # Number of cache demand accesses
system.ruby.l0_cntrl3.Dcache.demand_hits     26843333                       # Number of cache demand hits
system.ruby.l0_cntrl3.Dcache.demand_misses      1790202                       # Number of cache demand misses
system.ruby.l0_cntrl3.Dcache.demand_accesses     28633535                       # Number of cache demand accesses
system.ruby.l0_cntrl3.Icache.demand_hits     74504149                       # Number of cache demand hits
system.ruby.l0_cntrl3.Icache.demand_misses         1541                       # Number of cache demand misses
system.ruby.l0_cntrl3.Icache.demand_accesses     74505690                       # Number of cache demand accesses
system.ruby.l0_cntrl3.Zcache.demand_hits       152965                       # Number of cache demand hits
system.ruby.l0_cntrl3.Zcache.demand_misses        11872                       # Number of cache demand misses
system.ruby.l0_cntrl3.Zcache.demand_accesses       164837                       # Number of cache demand accesses
system.ruby.l0_cntrl4.Dcache.demand_hits     26849252                       # Number of cache demand hits
system.ruby.l0_cntrl4.Dcache.demand_misses      1784283                       # Number of cache demand misses
system.ruby.l0_cntrl4.Dcache.demand_accesses     28633535                       # Number of cache demand accesses
system.ruby.l0_cntrl4.Icache.demand_hits     74504523                       # Number of cache demand hits
system.ruby.l0_cntrl4.Icache.demand_misses         1167                       # Number of cache demand misses
system.ruby.l0_cntrl4.Icache.demand_accesses     74505690                       # Number of cache demand accesses
system.ruby.l0_cntrl4.Zcache.demand_hits       145981                       # Number of cache demand hits
system.ruby.l0_cntrl4.Zcache.demand_misses        11475                       # Number of cache demand misses
system.ruby.l0_cntrl4.Zcache.demand_accesses       157456                       # Number of cache demand accesses
system.ruby.l1_cntrl0.cache.demand_hits           262                       # Number of cache demand hits
system.ruby.l1_cntrl0.cache.demand_misses      4357911                       # Number of cache demand misses
system.ruby.l1_cntrl0.cache.demand_accesses      4358173                       # Number of cache demand accesses
system.ruby.l1_cntrl0.zcache.demand_hits          132                       # Number of cache demand hits
system.ruby.l1_cntrl0.zcache.demand_misses      1058565                       # Number of cache demand misses
system.ruby.l1_cntrl0.zcache.demand_accesses      1058697                       # Number of cache demand accesses
system.ruby.l1_cntrl1.cache.demand_hits        166238                       # Number of cache demand hits
system.ruby.l1_cntrl1.cache.demand_misses      1630010                       # Number of cache demand misses
system.ruby.l1_cntrl1.cache.demand_accesses      1796248                       # Number of cache demand accesses
system.ruby.l1_cntrl1.zcache.demand_hits            0                       # Number of cache demand hits
system.ruby.l1_cntrl1.zcache.demand_misses            0                       # Number of cache demand misses
system.ruby.l1_cntrl1.zcache.demand_accesses            0                       # Number of cache demand accesses
system.ruby.l1_cntrl2.cache.demand_hits        169131                       # Number of cache demand hits
system.ruby.l1_cntrl2.cache.demand_misses      1625049                       # Number of cache demand misses
system.ruby.l1_cntrl2.cache.demand_accesses      1794180                       # Number of cache demand accesses
system.ruby.l1_cntrl2.zcache.demand_hits            0                       # Number of cache demand hits
system.ruby.l1_cntrl2.zcache.demand_misses            0                       # Number of cache demand misses
system.ruby.l1_cntrl2.zcache.demand_accesses            0                       # Number of cache demand accesses
system.ruby.l1_cntrl3.cache.demand_hits        165927                       # Number of cache demand hits
system.ruby.l1_cntrl3.cache.demand_misses      1625816                       # Number of cache demand misses
system.ruby.l1_cntrl3.cache.demand_accesses      1791743                       # Number of cache demand accesses
system.ruby.l1_cntrl3.zcache.demand_hits            0                       # Number of cache demand hits
system.ruby.l1_cntrl3.zcache.demand_misses            0                       # Number of cache demand misses
system.ruby.l1_cntrl3.zcache.demand_accesses            0                       # Number of cache demand accesses
system.ruby.l1_cntrl4.cache.demand_hits        175704                       # Number of cache demand hits
system.ruby.l1_cntrl4.cache.demand_misses      1609746                       # Number of cache demand misses
system.ruby.l1_cntrl4.cache.demand_accesses      1785450                       # Number of cache demand accesses
system.ruby.l1_cntrl4.zcache.demand_hits            0                       # Number of cache demand hits
system.ruby.l1_cntrl4.zcache.demand_misses            0                       # Number of cache demand misses
system.ruby.l1_cntrl4.zcache.demand_accesses            0                       # Number of cache demand accesses
system.ruby.l2_cntrl0.L2cache.demand_hits      2183204                       # Number of cache demand hits
system.ruby.l2_cntrl0.L2cache.demand_misses      8665328                       # Number of cache demand misses
system.ruby.l2_cntrl0.L2cache.demand_accesses     10848532                       # Number of cache demand accesses
system.ruby.l2_cntrl0.ZL2cache.demand_hits        25019                       # Number of cache demand hits
system.ruby.l2_cntrl0.ZL2cache.demand_misses       697244                       # Number of cache demand misses
system.ruby.l2_cntrl0.ZL2cache.demand_accesses       722263                       # Number of cache demand accesses
system.ruby.l2_cntrl0.fully_busy_cycles          5226                       # cycles for which number of transistions == max transitions
system.ruby.memctrl_clk_domain.clock             1500                       # Clock period in ticks
system.ruby.network.routers00.percent_links_utilized            0                      
system.ruby.network.routers01.percent_links_utilized            0                      
system.ruby.network.routers02.percent_links_utilized            0                      
system.ruby.network.routers03.percent_links_utilized            0                      
system.ruby.network.routers04.percent_links_utilized            0                      
system.ruby.network.routers05.percent_links_utilized     0.201167                      
system.ruby.network.routers05.msg_count.Control::0      4357911                      
system.ruby.network.routers05.msg_count.Request_Control::2       758678                      
system.ruby.network.routers05.msg_count.Response_Data::1      4357915                      
system.ruby.network.routers05.msg_count.Response_Control::1      3599099                      
system.ruby.network.routers05.msg_count.Response_Control::2      4357903                      
system.ruby.network.routers05.msg_count.Writeback_Data::0      3597978                      
system.ruby.network.routers05.msg_count.Writeback_Data::1       757998                      
system.ruby.network.routers05.msg_count.Writeback_Control::0          395                      
system.ruby.network.routers05.msg_bytes.Control::0     34863288                      
system.ruby.network.routers05.msg_bytes.Request_Control::2      6069424                      
system.ruby.network.routers05.msg_bytes.Response_Data::1    313769880                      
system.ruby.network.routers05.msg_bytes.Response_Control::1     28792792                      
system.ruby.network.routers05.msg_bytes.Response_Control::2     34863224                      
system.ruby.network.routers05.msg_bytes.Writeback_Data::0    259054416                      
system.ruby.network.routers05.msg_bytes.Writeback_Data::1     54575856                      
system.ruby.network.routers05.msg_bytes.Writeback_Control::0         3160                      
system.ruby.network.routers06.percent_links_utilized     0.053758                      
system.ruby.network.routers06.msg_count.Control::0      1630010                      
system.ruby.network.routers06.msg_count.Request_Control::2       464901                      
system.ruby.network.routers06.msg_count.Response_Data::1      1632966                      
system.ruby.network.routers06.msg_count.Response_Control::1      1239587                      
system.ruby.network.routers06.msg_count.Response_Control::2      1619407                      
system.ruby.network.routers06.msg_count.Writeback_Data::0        28522                      
system.ruby.network.routers06.msg_count.Writeback_Data::1       379662                      
system.ruby.network.routers06.msg_count.Writeback_Control::0      1127301                      
system.ruby.network.routers06.msg_bytes.Control::0     13040080                      
system.ruby.network.routers06.msg_bytes.Request_Control::2      3719208                      
system.ruby.network.routers06.msg_bytes.Response_Data::1    117573552                      
system.ruby.network.routers06.msg_bytes.Response_Control::1      9916696                      
system.ruby.network.routers06.msg_bytes.Response_Control::2     12955256                      
system.ruby.network.routers06.msg_bytes.Writeback_Data::0      2053584                      
system.ruby.network.routers06.msg_bytes.Writeback_Data::1     27335664                      
system.ruby.network.routers06.msg_bytes.Writeback_Control::0      9018408                      
system.ruby.network.routers07.percent_links_utilized     0.058598                      
system.ruby.network.routers07.msg_count.Control::0      1625049                      
system.ruby.network.routers07.msg_count.Request_Control::2       686847                      
system.ruby.network.routers07.msg_count.Response_Data::1      1640073                      
system.ruby.network.routers07.msg_count.Response_Control::1       957378                      
system.ruby.network.routers07.msg_count.Response_Control::2      1615401                      
system.ruby.network.routers07.msg_count.Writeback_Data::0        23829                      
system.ruby.network.routers07.msg_count.Writeback_Data::1       653880                      
system.ruby.network.routers07.msg_count.Writeback_Control::0       908094                      
system.ruby.network.routers07.msg_bytes.Control::0     13000392                      
system.ruby.network.routers07.msg_bytes.Request_Control::2      5494776                      
system.ruby.network.routers07.msg_bytes.Response_Data::1    118085256                      
system.ruby.network.routers07.msg_bytes.Response_Control::1      7659024                      
system.ruby.network.routers07.msg_bytes.Response_Control::2     12923208                      
system.ruby.network.routers07.msg_bytes.Writeback_Data::0      1715688                      
system.ruby.network.routers07.msg_bytes.Writeback_Data::1     47079360                      
system.ruby.network.routers07.msg_bytes.Writeback_Control::0      7264752                      
system.ruby.network.routers08.percent_links_utilized     0.057678                      
system.ruby.network.routers08.msg_count.Control::0      1625816                      
system.ruby.network.routers08.msg_count.Request_Control::2       637798                      
system.ruby.network.routers08.msg_count.Response_Data::1      1629838                      
system.ruby.network.routers08.msg_count.Response_Control::1       999003                      
system.ruby.network.routers08.msg_count.Response_Control::2      1614464                      
system.ruby.network.routers08.msg_count.Writeback_Data::0        25069                      
system.ruby.network.routers08.msg_count.Writeback_Data::1       612500                      
system.ruby.network.routers08.msg_count.Writeback_Control::0       950647                      
system.ruby.network.routers08.msg_bytes.Control::0     13006528                      
system.ruby.network.routers08.msg_bytes.Request_Control::2      5102384                      
system.ruby.network.routers08.msg_bytes.Response_Data::1    117348336                      
system.ruby.network.routers08.msg_bytes.Response_Control::1      7992024                      
system.ruby.network.routers08.msg_bytes.Response_Control::2     12915712                      
system.ruby.network.routers08.msg_bytes.Writeback_Data::0      1804968                      
system.ruby.network.routers08.msg_bytes.Writeback_Data::1     44100000                      
system.ruby.network.routers08.msg_bytes.Writeback_Control::0      7605176                      
system.ruby.network.routers09.percent_links_utilized     0.060705                      
system.ruby.network.routers09.msg_count.Control::0      1609746                      
system.ruby.network.routers09.msg_count.Request_Control::2       871375                      
system.ruby.network.routers09.msg_count.Response_Data::1      1611002                      
system.ruby.network.routers09.msg_count.Response_Control::1       777788                      
system.ruby.network.routers09.msg_count.Response_Control::2      1596809                      
system.ruby.network.routers09.msg_count.Writeback_Data::0        20534                      
system.ruby.network.routers09.msg_count.Writeback_Data::1       818494                      
system.ruby.network.routers09.msg_count.Writeback_Control::0       705000                      
system.ruby.network.routers09.msg_bytes.Control::0     12877968                      
system.ruby.network.routers09.msg_bytes.Request_Control::2      6971000                      
system.ruby.network.routers09.msg_bytes.Response_Data::1    115992144                      
system.ruby.network.routers09.msg_bytes.Response_Control::1      6222304                      
system.ruby.network.routers09.msg_bytes.Response_Control::2     12774472                      
system.ruby.network.routers09.msg_bytes.Writeback_Data::0      1478448                      
system.ruby.network.routers09.msg_bytes.Writeback_Data::1     58931568                      
system.ruby.network.routers09.msg_bytes.Writeback_Control::0      5640000                      
system.ruby.network.routers10.percent_links_utilized     0.723864                      
system.ruby.network.routers10.msg_count.Control::0     19501987                      
system.ruby.network.routers10.msg_count.Request_Control::2      3408455                      
system.ruby.network.routers10.msg_count.Response_Data::1     23168737                      
system.ruby.network.routers10.msg_count.Response_Control::1     21052924                      
system.ruby.network.routers10.msg_count.Response_Control::2     10803984                      
system.ruby.network.routers10.msg_count.Writeback_Data::0      3695932                      
system.ruby.network.routers10.msg_count.Writeback_Data::1      3222534                      
system.ruby.network.routers10.msg_count.Writeback_Control::0      3691437                      
system.ruby.network.routers10.msg_bytes.Control::0    156015896                      
system.ruby.network.routers10.msg_bytes.Request_Control::2     27267640                      
system.ruby.network.routers10.msg_bytes.Response_Data::1   1668149064                      
system.ruby.network.routers10.msg_bytes.Response_Control::1    168423392                      
system.ruby.network.routers10.msg_bytes.Response_Control::2     86431872                      
system.ruby.network.routers10.msg_bytes.Writeback_Data::0    266107104                      
system.ruby.network.routers10.msg_bytes.Writeback_Data::1    232022448                      
system.ruby.network.routers10.msg_bytes.Writeback_Control::0     29531496                      
system.ruby.network.routers11.percent_links_utilized     0.292449                      
system.ruby.network.routers11.msg_count.Control::0      8653455                      
system.ruby.network.routers11.msg_count.Response_Data::1     12320470                      
system.ruby.network.routers11.msg_count.Response_Control::1     13480153                      
system.ruby.network.routers11.msg_bytes.Control::0     69227640                      
system.ruby.network.routers11.msg_bytes.Response_Data::1    887073840                      
system.ruby.network.routers11.msg_bytes.Response_Control::1    107841224                      
system.ruby.network.routers12.percent_links_utilized     0.120687                      
system.ruby.network.routers12.msg_count.Control::0     19501987                      
system.ruby.network.routers12.msg_count.Request_Control::2      3419599                      
system.ruby.network.routers12.msg_count.Response_Data::1     23180610                      
system.ruby.network.routers12.msg_count.Response_Control::1     21052966                      
system.ruby.network.routers12.msg_count.Response_Control::2     10803984                      
system.ruby.network.routers12.msg_count.Writeback_Data::0      3695932                      
system.ruby.network.routers12.msg_count.Writeback_Data::1      3222534                      
system.ruby.network.routers12.msg_count.Writeback_Control::0      3691437                      
system.ruby.network.routers12.msg_bytes.Control::0    156015896                      
system.ruby.network.routers12.msg_bytes.Request_Control::2     27356792                      
system.ruby.network.routers12.msg_bytes.Response_Data::1   1669003920                      
system.ruby.network.routers12.msg_bytes.Response_Control::1    168423728                      
system.ruby.network.routers12.msg_bytes.Response_Control::2     86431872                      
system.ruby.network.routers12.msg_bytes.Writeback_Data::0    266107104                      
system.ruby.network.routers12.msg_bytes.Writeback_Data::1    232022448                      
system.ruby.network.routers12.msg_bytes.Writeback_Control::0     29531496                      
system.ruby.network.msg_count.Control        58505961                      
system.ruby.network.msg_count.Request_Control     10247653                      
system.ruby.network.msg_count.Response_Data     69541611                      
system.ruby.network.msg_count.Response_Control     95570850                      
system.ruby.network.msg_count.Writeback_Data     20755398                      
system.ruby.network.msg_count.Writeback_Control     11074311                      
system.ruby.network.msg_byte.Control        468047688                      
system.ruby.network.msg_byte.Request_Control     81981224                      
system.ruby.network.msg_byte.Response_Data   5006995992                      
system.ruby.network.msg_byte.Response_Control    764566800                      
system.ruby.network.msg_byte.Writeback_Data   1494388656                      
system.ruby.network.msg_byte.Writeback_Control     88594488                      
system.ruby.network.routers00.throttle0.link_utilization            0                      
system.ruby.network.routers00.throttle1.link_utilization            0                      
system.ruby.network.routers01.throttle0.link_utilization            0                      
system.ruby.network.routers01.throttle1.link_utilization            0                      
system.ruby.network.routers02.throttle0.link_utilization            0                      
system.ruby.network.routers02.throttle1.link_utilization            0                      
system.ruby.network.routers03.throttle0.link_utilization            0                      
system.ruby.network.routers03.throttle1.link_utilization            0                      
system.ruby.network.routers04.throttle0.link_utilization            0                      
system.ruby.network.routers04.throttle1.link_utilization            0                      
system.ruby.network.routers05.throttle0.link_utilization     0.191619                      
system.ruby.network.routers05.throttle0.msg_count.Request_Control::2       758678                      
system.ruby.network.routers05.throttle0.msg_count.Response_Data::1      4357883                      
system.ruby.network.routers05.throttle0.msg_count.Response_Control::1      3598437                      
system.ruby.network.routers05.throttle0.msg_bytes.Request_Control::2      6069424                      
system.ruby.network.routers05.throttle0.msg_bytes.Response_Data::1    313767576                      
system.ruby.network.routers05.throttle0.msg_bytes.Response_Control::1     28787496                      
system.ruby.network.routers05.throttle1.link_utilization     0.210715                      
system.ruby.network.routers05.throttle1.msg_count.Control::0      4357911                      
system.ruby.network.routers05.throttle1.msg_count.Response_Data::1           32                      
system.ruby.network.routers05.throttle1.msg_count.Response_Control::1          662                      
system.ruby.network.routers05.throttle1.msg_count.Response_Control::2      4357903                      
system.ruby.network.routers05.throttle1.msg_count.Writeback_Data::0      3597978                      
system.ruby.network.routers05.throttle1.msg_count.Writeback_Data::1       757998                      
system.ruby.network.routers05.throttle1.msg_count.Writeback_Control::0          395                      
system.ruby.network.routers05.throttle1.msg_bytes.Control::0     34863288                      
system.ruby.network.routers05.throttle1.msg_bytes.Response_Data::1         2304                      
system.ruby.network.routers05.throttle1.msg_bytes.Response_Control::1         5296                      
system.ruby.network.routers05.throttle1.msg_bytes.Response_Control::2     34863224                      
system.ruby.network.routers05.throttle1.msg_bytes.Writeback_Data::0    259054416                      
system.ruby.network.routers05.throttle1.msg_bytes.Writeback_Data::1     54575856                      
system.ruby.network.routers05.throttle1.msg_bytes.Writeback_Control::0         3160                      
system.ruby.network.routers06.throttle0.link_utilization     0.071633                      
system.ruby.network.routers06.throttle0.msg_count.Request_Control::2       464901                      
system.ruby.network.routers06.throttle0.msg_count.Response_Data::1      1630008                      
system.ruby.network.routers06.throttle0.msg_count.Response_Control::1      1155828                      
system.ruby.network.routers06.throttle0.msg_bytes.Request_Control::2      3719208                      
system.ruby.network.routers06.throttle0.msg_bytes.Response_Data::1    117360576                      
system.ruby.network.routers06.throttle0.msg_bytes.Response_Control::1      9246624                      
system.ruby.network.routers06.throttle1.link_utilization     0.035884                      
system.ruby.network.routers06.throttle1.msg_count.Control::0      1630010                      
system.ruby.network.routers06.throttle1.msg_count.Response_Data::1         2958                      
system.ruby.network.routers06.throttle1.msg_count.Response_Control::1        83759                      
system.ruby.network.routers06.throttle1.msg_count.Response_Control::2      1619407                      
system.ruby.network.routers06.throttle1.msg_count.Writeback_Data::0        28522                      
system.ruby.network.routers06.throttle1.msg_count.Writeback_Data::1       379662                      
system.ruby.network.routers06.throttle1.msg_count.Writeback_Control::0      1127301                      
system.ruby.network.routers06.throttle1.msg_bytes.Control::0     13040080                      
system.ruby.network.routers06.throttle1.msg_bytes.Response_Data::1       212976                      
system.ruby.network.routers06.throttle1.msg_bytes.Response_Control::1       670072                      
system.ruby.network.routers06.throttle1.msg_bytes.Response_Control::2     12955256                      
system.ruby.network.routers06.throttle1.msg_bytes.Writeback_Data::0      2053584                      
system.ruby.network.routers06.throttle1.msg_bytes.Writeback_Data::1     27335664                      
system.ruby.network.routers06.throttle1.msg_bytes.Writeback_Control::0      9018408                      
system.ruby.network.routers07.throttle0.link_utilization     0.071428                      
system.ruby.network.routers07.throttle0.msg_count.Request_Control::2       686847                      
system.ruby.network.routers07.throttle0.msg_count.Response_Data::1      1625048                      
system.ruby.network.routers07.throttle0.msg_count.Response_Control::1       931925                      
system.ruby.network.routers07.throttle0.msg_bytes.Request_Control::2      5494776                      
system.ruby.network.routers07.throttle0.msg_bytes.Response_Data::1    117003456                      
system.ruby.network.routers07.throttle0.msg_bytes.Response_Control::1      7455400                      
system.ruby.network.routers07.throttle1.link_utilization     0.045768                      
system.ruby.network.routers07.throttle1.msg_count.Control::0      1625049                      
system.ruby.network.routers07.throttle1.msg_count.Response_Data::1        15025                      
system.ruby.network.routers07.throttle1.msg_count.Response_Control::1        25453                      
system.ruby.network.routers07.throttle1.msg_count.Response_Control::2      1615401                      
system.ruby.network.routers07.throttle1.msg_count.Writeback_Data::0        23829                      
system.ruby.network.routers07.throttle1.msg_count.Writeback_Data::1       653880                      
system.ruby.network.routers07.throttle1.msg_count.Writeback_Control::0       908094                      
system.ruby.network.routers07.throttle1.msg_bytes.Control::0     13000392                      
system.ruby.network.routers07.throttle1.msg_bytes.Response_Data::1      1081800                      
system.ruby.network.routers07.throttle1.msg_bytes.Response_Control::1       203624                      
system.ruby.network.routers07.throttle1.msg_bytes.Response_Control::2     12923208                      
system.ruby.network.routers07.throttle1.msg_bytes.Writeback_Data::0      1715688                      
system.ruby.network.routers07.throttle1.msg_bytes.Writeback_Data::1     47079360                      
system.ruby.network.routers07.throttle1.msg_bytes.Writeback_Control::0      7264752                      
system.ruby.network.routers08.throttle0.link_utilization     0.071435                      
system.ruby.network.routers08.throttle0.msg_count.Request_Control::2       637798                      
system.ruby.network.routers08.throttle0.msg_count.Response_Data::1      1625815                      
system.ruby.network.routers08.throttle0.msg_count.Response_Control::1       975718                      
system.ruby.network.routers08.throttle0.msg_bytes.Request_Control::2      5102384                      
system.ruby.network.routers08.throttle0.msg_bytes.Response_Data::1    117058680                      
system.ruby.network.routers08.throttle0.msg_bytes.Response_Control::1      7805744                      
system.ruby.network.routers08.throttle1.link_utilization     0.043921                      
system.ruby.network.routers08.throttle1.msg_count.Control::0      1625816                      
system.ruby.network.routers08.throttle1.msg_count.Response_Data::1         4023                      
system.ruby.network.routers08.throttle1.msg_count.Response_Control::1        23285                      
system.ruby.network.routers08.throttle1.msg_count.Response_Control::2      1614464                      
system.ruby.network.routers08.throttle1.msg_count.Writeback_Data::0        25069                      
system.ruby.network.routers08.throttle1.msg_count.Writeback_Data::1       612500                      
system.ruby.network.routers08.throttle1.msg_count.Writeback_Control::0       950647                      
system.ruby.network.routers08.throttle1.msg_bytes.Control::0     13006528                      
system.ruby.network.routers08.throttle1.msg_bytes.Response_Data::1       289656                      
system.ruby.network.routers08.throttle1.msg_bytes.Response_Control::1       186280                      
system.ruby.network.routers08.throttle1.msg_bytes.Response_Control::2     12915712                      
system.ruby.network.routers08.throttle1.msg_bytes.Writeback_Data::0      1804968                      
system.ruby.network.routers08.throttle1.msg_bytes.Writeback_Data::1     44100000                      
system.ruby.network.routers08.throttle1.msg_bytes.Writeback_Control::0      7605176                      
system.ruby.network.routers09.throttle0.link_utilization     0.070726                      
system.ruby.network.routers09.throttle0.msg_count.Request_Control::2       871375                      
system.ruby.network.routers09.throttle0.msg_count.Response_Data::1      1609745                      
system.ruby.network.routers09.throttle0.msg_count.Response_Control::1       725536                      
system.ruby.network.routers09.throttle0.msg_bytes.Request_Control::2      6971000                      
system.ruby.network.routers09.throttle0.msg_bytes.Response_Data::1    115901640                      
system.ruby.network.routers09.throttle0.msg_bytes.Response_Control::1      5804288                      
system.ruby.network.routers09.throttle1.link_utilization     0.050683                      
system.ruby.network.routers09.throttle1.msg_count.Control::0      1609746                      
system.ruby.network.routers09.throttle1.msg_count.Response_Data::1         1257                      
system.ruby.network.routers09.throttle1.msg_count.Response_Control::1        52252                      
system.ruby.network.routers09.throttle1.msg_count.Response_Control::2      1596809                      
system.ruby.network.routers09.throttle1.msg_count.Writeback_Data::0        20534                      
system.ruby.network.routers09.throttle1.msg_count.Writeback_Data::1       818494                      
system.ruby.network.routers09.throttle1.msg_count.Writeback_Control::0       705000                      
system.ruby.network.routers09.throttle1.msg_bytes.Control::0     12877968                      
system.ruby.network.routers09.throttle1.msg_bytes.Response_Data::1        90504                      
system.ruby.network.routers09.throttle1.msg_bytes.Response_Control::1       418016                      
system.ruby.network.routers09.throttle1.msg_bytes.Response_Control::2     12774472                      
system.ruby.network.routers09.throttle1.msg_bytes.Writeback_Data::0      1478448                      
system.ruby.network.routers09.throttle1.msg_bytes.Writeback_Data::1     58931568                      
system.ruby.network.routers09.throttle1.msg_bytes.Writeback_Control::0      5640000                      
system.ruby.network.routers10.throttle0.link_utilization     0.766662                      
system.ruby.network.routers10.throttle0.msg_count.Control::0     10848532                      
system.ruby.network.routers10.throttle0.msg_count.Response_Data::1      8665096                      
system.ruby.network.routers10.throttle0.msg_count.Response_Control::1      8758953                      
system.ruby.network.routers10.throttle0.msg_count.Response_Control::2     10803984                      
system.ruby.network.routers10.throttle0.msg_count.Writeback_Data::0      3695932                      
system.ruby.network.routers10.throttle0.msg_count.Writeback_Data::1      3222534                      
system.ruby.network.routers10.throttle0.msg_count.Writeback_Control::0      3691437                      
system.ruby.network.routers10.throttle0.msg_bytes.Control::0     86788256                      
system.ruby.network.routers10.throttle0.msg_bytes.Response_Data::1    623886912                      
system.ruby.network.routers10.throttle0.msg_bytes.Response_Control::1     70071624                      
system.ruby.network.routers10.throttle0.msg_bytes.Response_Control::2     86431872                      
system.ruby.network.routers10.throttle0.msg_bytes.Writeback_Data::0    266107104                      
system.ruby.network.routers10.throttle0.msg_bytes.Writeback_Data::1    232022448                      
[...]
system.ruby.L1Cache_Controller.S.L0_Invalidate_Own |           0      0.00%      0.00% |       13598     25.36%     25.36% |       13060     24.35%     49.71% |       14986     27.94%     77.65% |       11985     22.35%    100.00%
system.ruby.L1Cache_Controller.S.L0_Invalidate_Own::total        53629                      
system.ruby.L1Cache_Controller.S.L0_Invalidate_Else |           4      0.15%      0.15% |         368     13.76%     13.91% |         390     14.58%     28.49% |         850     31.78%     60.26% |        1063     39.74%    100.00%
system.ruby.L1Cache_Controller.S.L0_Invalidate_Else::total         2675                      
system.ruby.L1Cache_Controller.SS.Load   |           2      0.04%      0.04% |        1156     25.09%     25.14% |        2209     47.95%     73.08% |         629     13.65%     86.74% |         611     13.26%    100.00%
system.ruby.L1Cache_Controller.SS.Load::total         4607                      
system.ruby.L1Cache_Controller.SS.Inv    |          16      0.42%      0.42% |         371      9.76%     10.18% |        1463     38.50%     48.68% |         871     22.92%     71.61% |        1079     28.39%    100.00%
system.ruby.L1Cache_Controller.SS.Inv::total         3800                      
system.ruby.L1Cache_Controller.SS.L1_Replacement |           0      0.00%      0.00% |       13894     25.17%     25.17% |       14139     25.61%     50.78% |       15189     27.51%     78.29% |       11984     21.71%    100.00%
system.ruby.L1Cache_Controller.SS.L1_Replacement::total        55206                      
system.ruby.L1Cache_Controller.E.WriteBack |         631      0.01%      0.01% |     1504907     24.45%     24.46% |     1564451     25.42%     49.88% |     1562381     25.38%     75.26% |     1522456     24.74%    100.00%
system.ruby.L1Cache_Controller.E.WriteBack::total      6154826                      
system.ruby.L1Cache_Controller.E.L0_Invalidate_Own |       11593     11.99%     11.99% |       25328     26.20%     38.19% |       20899     21.62%     59.81% |       21747     22.50%     82.31% |       17105     17.69%    100.00%
system.ruby.L1Cache_Controller.E.L0_Invalidate_Own::total        96672                      
system.ruby.L1Cache_Controller.E.L0_Invalidate_Else |         737      0.42%      0.42% |       81410     46.89%     47.31% |       22979     13.23%     60.55% |       19050     10.97%     71.52% |       49448     28.48%    100.00%
system.ruby.L1Cache_Controller.E.L0_Invalidate_Else::total       173624                      
system.ruby.L1Cache_Controller.EE.Load   |           6     33.33%     33.33% |           0      0.00%     33.33% |           1      5.56%     38.89% |           1      5.56%     44.44% |          10     55.56%    100.00%
system.ruby.L1Cache_Controller.EE.Load::total           18                      
system.ruby.L1Cache_Controller.EE.Inv    |         646      0.38%      0.38% |       80230     47.66%     48.05% |       20372     12.10%     60.15% |       18302     10.87%     71.02% |       48778     28.98%    100.00%
system.ruby.L1Cache_Controller.EE.Inv::total       168328                      
system.ruby.L1Cache_Controller.EE.L1_Replacement |        9153      9.83%      9.83% |       24998     26.84%     36.67% |       20596     22.12%     58.78% |       21516     23.10%     81.89% |       16868     18.11%    100.00%
system.ruby.L1Cache_Controller.EE.L1_Replacement::total        93131                      
system.ruby.L1Cache_Controller.EE.Fwd_GETX |           4    100.00%    100.00% |           0      0.00%    100.00% |           0      0.00%    100.00% |           0      0.00%    100.00% |           0      0.00%    100.00%
system.ruby.L1Cache_Controller.EE.Fwd_GETX::total            4                      
system.ruby.L1Cache_Controller.EE.Fwd_GETS |           4      0.08%      0.08% |        1163     22.99%     23.07% |        2577     50.95%     74.02% |         699     13.82%     87.84% |         615     12.16%    100.00%
system.ruby.L1Cache_Controller.EE.Fwd_GETS::total         5058                      
system.ruby.L1Cache_Controller.M.WriteBack |     4332713     86.60%     86.60% |      164821      3.29%     89.89% |      166662      3.33%     93.22% |      165046      3.30%     96.52% |      174046      3.48%    100.00%
system.ruby.L1Cache_Controller.M.WriteBack::total      5003288                      
system.ruby.L1Cache_Controller.M.L0_Invalidate_Own |        7832     40.55%     40.55% |        2824     14.62%     55.18% |        2584     13.38%     68.55% |        2957     15.31%     83.87% |        3116     16.13%    100.00%
system.ruby.L1Cache_Controller.M.L0_Invalidate_Own::total        19313                      
system.ruby.L1Cache_Controller.M.L0_Invalidate_Else |        3880     24.23%     24.23% |        2985     18.64%     42.88% |        3112     19.44%     62.31% |        2741     17.12%     79.43% |        3293     20.57%    100.00%
system.ruby.L1Cache_Controller.M.L0_Invalidate_Else::total        16011                      
system.ruby.L1Cache_Controller.MM.Load   |          98      0.01%      0.01% |      165082     24.55%     24.56% |      166921     24.82%     49.38% |      165297     24.58%     73.96% |      175083     26.04%    100.00%
system.ruby.L1Cache_Controller.MM.Load::total       672481                      
system.ruby.L1Cache_Controller.MM.Store  |         155    100.00%    100.00% |           0      0.00%    100.00% |           0      0.00%    100.00% |           0      0.00%    100.00% |           0      0.00%    100.00%
system.ruby.L1Cache_Controller.MM.Store::total          155                      
system.ruby.L1Cache_Controller.MM.Inv    |      757998     23.52%     23.52% |      379660     11.78%     35.30% |      653880     20.29%     55.59% |      612500     19.01%     74.60% |      818494     25.40%    100.00%
system.ruby.L1Cache_Controller.MM.Inv::total      3222532                      
system.ruby.L1Cache_Controller.MM.L1_Replacement |     3589220     49.21%     49.21% |     1130825     15.50%     64.71% |      911327     12.49%     77.20% |      954200     13.08%     90.28% |      708666      9.72%    100.00%
system.ruby.L1Cache_Controller.MM.L1_Replacement::total      7294238                      
system.ruby.L1Cache_Controller.MM.Fwd_GETX |           0      0.00%      0.00% |           2     22.22%     22.22% |           3     33.33%     55.56% |           3     33.33%     88.89% |           1     11.11%    100.00%
system.ruby.L1Cache_Controller.MM.Fwd_GETX::total            9                      
system.ruby.L1Cache_Controller.MM.Fwd_GETS |          10      0.15%      0.15% |         315      4.79%      4.94% |        4934     74.95%     79.89% |        1311     19.91%     99.80% |          13      0.20%    100.00%
system.ruby.L1Cache_Controller.MM.Fwd_GETS::total         6583                      
system.ruby.L1Cache_Controller.IS.Inv    |           0      0.00%      0.00% |           0      0.00%      0.00% |           0      0.00%      0.00% |           1    100.00%    100.00% |           0      0.00%    100.00%
system.ruby.L1Cache_Controller.IS.Inv::total            1                      
system.ruby.L1Cache_Controller.IS.Data_Exclusive |       13597      0.21%      0.21% |     1611645     25.08%     25.29% |     1608328     25.03%     50.32% |     1603179     24.95%     75.27% |     1589315     24.73%    100.00%
system.ruby.L1Cache_Controller.IS.Data_Exclusive::total      6426064                      
system.ruby.L1Cache_Controller.IS.DataS_fromL1 |          29      0.25%      0.25% |        2214     19.02%     19.27% |        1621     13.92%     33.19% |        5782     49.67%     82.86% |        1995     17.14%    100.00%
system.ruby.L1Cache_Controller.IS.DataS_fromL1::total        11641                      
system.ruby.L1Cache_Controller.IS.Data_all_Acks |           8      0.02%      0.02% |       10603     23.80%     23.82% |        9648     21.66%     45.48% |       11352     25.48%     70.96% |       12937     29.04%    100.00%
system.ruby.L1Cache_Controller.IS.Data_all_Acks::total        44548                      
system.ruby.L1Cache_Controller.IM.Data_all_Acks |     4344249     99.50%     99.50% |        5546      0.13%     99.62% |        5451      0.12%     99.75% |        5501      0.13%     99.87% |        5498      0.13%    100.00%
system.ruby.L1Cache_Controller.IM.Data_all_Acks::total      4366245                      
system.ruby.L1Cache_Controller.SM.Ack    |          36     85.71%     85.71% |           3      7.14%     92.86% |           1      2.38%     95.24% |           1      2.38%     97.62% |           1      2.38%    100.00%
system.ruby.L1Cache_Controller.SM.Ack::total           42                      
system.ruby.L1Cache_Controller.SM.Ack_all |          28     84.85%     84.85% |           2      6.06%     90.91% |           1      3.03%     93.94% |           1      3.03%     96.97% |           1      3.03%    100.00%
system.ruby.L1Cache_Controller.SM.Ack_all::total           33                      
system.ruby.L1Cache_Controller.IS_I.Data_Exclusive |           0      0.00%      0.00% |           0      0.00%      0.00% |           0      0.00%      0.00% |           1    100.00%    100.00% |           0      0.00%    100.00%
system.ruby.L1Cache_Controller.IS_I.Data_Exclusive::total            1                      
system.ruby.L1Cache_Controller.M_I.Inv   |           0      0.00%      0.00% |           2    100.00%    100.00% |           0      0.00%    100.00% |           0      0.00%    100.00% |           0      0.00%    100.00%
system.ruby.L1Cache_Controller.M_I.Inv::total            2                      
system.ruby.L1Cache_Controller.M_I.WB_Ack |     3598373     48.71%     48.71% |     1155821     15.65%     64.36% |      931923     12.62%     76.97% |      975716     13.21%     90.18% |      725534      9.82%    100.00%
system.ruby.L1Cache_Controller.M_I.WB_Ack::total      7387367                      
system.ruby.L1Cache_Controller.SINK_WB_ACK.WB_Ack |           0      0.00%      0.00% |           2    100.00%    100.00% |           0      0.00%    100.00% |           0      0.00%    100.00% |           0      0.00%    100.00%
system.ruby.L1Cache_Controller.SINK_WB_ACK.WB_Ack::total            2                      
system.ruby.L1Cache_Controller.S_IL0.L0_Invalidate_Own |           0      0.00%      0.00% |       13598     25.36%     25.36% |       13060     24.35%     49.71% |       14986     27.94%     77.65% |       11985     22.35%    100.00%
system.ruby.L1Cache_Controller.S_IL0.L0_Invalidate_Own::total        53629                      
system.ruby.L1Cache_Controller.S_IL0.L0_Invalidate_Else |           4      0.15%      0.15% |         368     13.76%     13.91% |         390     14.58%     28.49% |         850     31.78%     60.26% |        1063     39.74%    100.00%
system.ruby.L1Cache_Controller.S_IL0.L0_Invalidate_Else::total         2675                      
system.ruby.L1Cache_Controller.S_IL0.L0_Ack |           4      0.01%      0.01% |       13966     24.80%     24.81% |       13450     23.89%     48.70% |       15836     28.13%     76.83% |       13048     23.17%    100.00%
system.ruby.L1Cache_Controller.S_IL0.L0_Ack::total        56304                      
system.ruby.L1Cache_Controller.E_IL0.WriteBack |           0      0.00%      0.00% |           0      0.00%      0.00% |           0      0.00%      0.00% |           2     22.22%     22.22% |           7     77.78%    100.00%
system.ruby.L1Cache_Controller.E_IL0.WriteBack::total            9                      
system.ruby.L1Cache_Controller.E_IL0.L0_DataAck |        2517     67.16%     67.16% |         347      9.26%     76.41% |         332      8.86%     85.27% |         277      7.39%     92.66% |         275      7.34%    100.00%
system.ruby.L1Cache_Controller.E_IL0.L0_DataAck::total         3748                      
system.ruby.L1Cache_Controller.E_IL0.L0_Invalidate_Own |       11593     11.99%     11.99% |       25328     26.20%     38.19% |       20899     21.62%     59.81% |       21747     22.50%     82.31% |       17105     17.69%    100.00%
system.ruby.L1Cache_Controller.E_IL0.L0_Invalidate_Own::total        96672                      
system.ruby.L1Cache_Controller.E_IL0.L0_Invalidate_Else |         737      0.42%      0.42% |       81410     46.89%     47.31% |       22979     13.23%     60.55% |       19050     10.97%     71.52% |       49448     28.48%    100.00%
system.ruby.L1Cache_Controller.E_IL0.L0_Invalidate_Else::total       173624                      
system.ruby.L1Cache_Controller.E_IL0.L0_Ack |        9813      3.68%      3.68% |      106391     39.92%     43.60% |       43546     16.34%     59.93% |       40518     15.20%     75.14% |       66271     24.86%    100.00%
system.ruby.L1Cache_Controller.E_IL0.L0_Ack::total       266539                      
system.ruby.L1Cache_Controller.M_IL0.L0_DataAck |       11660     36.71%     36.71% |        5072     15.97%     52.67% |        5059     15.93%     68.60% |        5016     15.79%     84.39% |        4958     15.61%    100.00%
system.ruby.L1Cache_Controller.M_IL0.L0_DataAck::total        31765                      
system.ruby.L1Cache_Controller.M_IL0.L0_Invalidate_Own |        7832     40.55%     40.55% |        2824     14.62%     55.18% |        2584     13.38%     68.55% |        2957     15.31%     83.87% |        3116     16.13%    100.00%
system.ruby.L1Cache_Controller.M_IL0.L0_Invalidate_Own::total        19313                      
system.ruby.L1Cache_Controller.M_IL0.L0_Invalidate_Else |        3880     24.23%     24.23% |        2985     18.64%     42.88% |        3112     19.44%     62.31% |        2741     17.12%     79.43% |        3293     20.57%    100.00%
system.ruby.L1Cache_Controller.M_IL0.L0_Invalidate_Else::total        16011                      
system.ruby.L1Cache_Controller.M_IL0.L0_Ack |          52      1.46%      1.46% |         737     20.71%     22.17% |         637     17.90%     40.07% |         682     19.16%     59.23% |        1451     40.77%    100.00%
system.ruby.L1Cache_Controller.M_IL0.L0_Ack::total         3559                      
system.ruby.L1Cache_Controller.MM_IL0.Inv |           0      0.00%      0.00% |           0      0.00%      0.00% |           0      0.00%      0.00% |           2     22.22%     22.22% |           7     77.78%    100.00%
system.ruby.L1Cache_Controller.MM_IL0.Inv::total            9                      
system.ruby.L1Cache_Controller.MM_IL0.L0_Ack |           0      0.00%      0.00% |           0      0.00%      0.00% |           0      0.00%      0.00% |           2     22.22%     22.22% |           7     77.78%    100.00%
system.ruby.L1Cache_Controller.MM_IL0.L0_Ack::total            9                      
system.ruby.L2Cache_Controller.L1_GETS        6483521      0.00%      0.00%
system.ruby.L2Cache_Controller.L1_GETX        4366354      0.00%      0.00%
system.ruby.L2Cache_Controller.L1_UPGRADE           33      0.00%      0.00%
system.ruby.L2Cache_Controller.L1_PUTX        7387367      0.00%      0.00%
system.ruby.L2Cache_Controller.L1_PUTX_old            4      0.00%      0.00%
system.ruby.L2Cache_Controller.L2_Replacement      2896537      0.00%      0.00%
system.ruby.L2Cache_Controller.L2_Replacement_clean      5677051      0.00%      0.00%
system.ruby.L2Cache_Controller.Mem_Data       8653455      0.00%      0.00%
system.ruby.L2Cache_Controller.Mem_Ack        8573584      0.00%      0.00%
system.ruby.L2Cache_Controller.WB_Data         775619      0.00%      0.00%
system.ruby.L2Cache_Controller.WB_Data_clean      2458556      0.00%      0.00%
system.ruby.L2Cache_Controller.Ack              11135      0.00%      0.00%
system.ruby.L2Cache_Controller.Ack_all         174234      0.00%      0.00%
system.ruby.L2Cache_Controller.Unblock          11641      0.00%      0.00%
system.ruby.L2Cache_Controller.Exclusive_Unblock     10792343      0.00%      0.00%
system.ruby.L2Cache_Controller.NP.L1_GETS      4296481      0.00%      0.00%
system.ruby.L2Cache_Controller.NP.L1_GETX      4356974      0.00%      0.00%
system.ruby.L2Cache_Controller.NP.L1_PUTX_old            2      0.00%      0.00%
system.ruby.L2Cache_Controller.SS.L1_GETS        44130      0.00%      0.00%
system.ruby.L2Cache_Controller.SS.L1_UPGRADE           33      0.00%      0.00%
system.ruby.L2Cache_Controller.SS.L2_Replacement         4364      0.00%      0.00%
system.ruby.L2Cache_Controller.SS.L2_Replacement_clean         1542      0.00%      0.00%
system.ruby.L2Cache_Controller.M.L1_GETS      2129783      0.00%      0.00%
system.ruby.L2Cache_Controller.M.L1_GETX         9258      0.00%      0.00%
system.ruby.L2Cache_Controller.M.L2_Replacement      2889958      0.00%      0.00%
system.ruby.L2Cache_Controller.M.L2_Replacement_clean      2286858      0.00%      0.00%
system.ruby.L2Cache_Controller.MT.L1_GETS        11641      0.00%      0.00%
system.ruby.L2Cache_Controller.MT.L1_GETX           13      0.00%      0.00%
system.ruby.L2Cache_Controller.MT.L1_PUTX      7387367      0.00%      0.00%
system.ruby.L2Cache_Controller.MT.L2_Replacement         2215      0.00%      0.00%
system.ruby.L2Cache_Controller.MT.L2_Replacement_clean      3388647      0.00%      0.00%
system.ruby.L2Cache_Controller.M_I.L1_GETS         1245      0.00%      0.00%
system.ruby.L2Cache_Controller.M_I.L1_GETX          107      0.00%      0.00%
system.ruby.L2Cache_Controller.M_I.Mem_Ack      8573584      0.00%      0.00%
system.ruby.L2Cache_Controller.MT_I.WB_Data           60      0.00%      0.00%
system.ruby.L2Cache_Controller.MT_I.WB_Data_clean          478      0.00%      0.00%
system.ruby.L2Cache_Controller.MT_I.Ack_all         1677      0.00%      0.00%
system.ruby.L2Cache_Controller.MCT_I.L1_PUTX_old            2      0.00%      0.00%
system.ruby.L2Cache_Controller.MCT_I.WB_Data       770478      0.00%      0.00%
system.ruby.L2Cache_Controller.MCT_I.WB_Data_clean      2451518      0.00%      0.00%
system.ruby.L2Cache_Controller.MCT_I.Ack_all       166651      0.00%      0.00%
system.ruby.L2Cache_Controller.I_I.Ack           1974      0.00%      0.00%
system.ruby.L2Cache_Controller.I_I.Ack_all         1542      0.00%      0.00%
system.ruby.L2Cache_Controller.S_I.L1_GETS            5      0.00%      0.00%
system.ruby.L2Cache_Controller.S_I.Ack           9161      0.00%      0.00%
system.ruby.L2Cache_Controller.S_I.Ack_all         4364      0.00%      0.00%
system.ruby.L2Cache_Controller.ISS.L1_GETS          199      0.00%      0.00%
system.ruby.L2Cache_Controller.ISS.Mem_Data      4296282      0.00%      0.00%
system.ruby.L2Cache_Controller.IS.L1_GETS           20      0.00%      0.00%
system.ruby.L2Cache_Controller.IS.Mem_Data          199      0.00%      0.00%
system.ruby.L2Cache_Controller.IM.L1_GETX            1      0.00%      0.00%
system.ruby.L2Cache_Controller.IM.L2_Replacement_clean            4      0.00%      0.00%
system.ruby.L2Cache_Controller.IM.Mem_Data      4356974      0.00%      0.00%
system.ruby.L2Cache_Controller.SS_MB.Exclusive_Unblock           33      0.00%      0.00%
system.ruby.L2Cache_Controller.MT_MB.L1_GETS            8      0.00%      0.00%
system.ruby.L2Cache_Controller.MT_MB.L1_GETX            1      0.00%      0.00%
system.ruby.L2Cache_Controller.MT_MB.Exclusive_Unblock     10792310      0.00%      0.00%
system.ruby.L2Cache_Controller.MT_IIB.L1_GETS            9      0.00%      0.00%
system.ruby.L2Cache_Controller.MT_IIB.WB_Data         4712      0.00%      0.00%
system.ruby.L2Cache_Controller.MT_IIB.WB_Data_clean         6473      0.00%      0.00%
system.ruby.L2Cache_Controller.MT_IIB.Unblock          456      0.00%      0.00%
system.ruby.L2Cache_Controller.MT_IB.WB_Data          369      0.00%      0.00%
system.ruby.L2Cache_Controller.MT_IB.WB_Data_clean           87      0.00%      0.00%
system.ruby.L2Cache_Controller.MT_SB.Unblock        11185      0.00%      0.00%

---------- End Simulation Statistics   ----------
