
---------- Begin Simulation Statistics ----------
sim_seconds                                  0.135791                       # Number of seconds simulated
sim_ticks                                135790613500                       # Number of ticks simulated
final_tick                               135790613500                       # Number of ticks from beginning of simulation (restored from checkpoints and never reset)
sim_freq                                 1000000000000                       # Frequency of simulated ticks
host_inst_rate                                 111631                       # Simulator instruction rate (inst/s)
host_op_rate                                   213533                       # Simulator op (including micro ops) rate (op/s)
host_tick_rate                               94689647                       # Simulator tick rate (ticks/s)
host_mem_usage                                 783232                       # Number of bytes of host memory used
host_seconds                                  1434.06                       # Real time elapsed on the host
sim_insts                                   160086105                       # Number of instructions simulated
sim_ops                                     306219731                       # Number of ops (including micro ops) simulated
system.voltage_domain.voltage                       1                       # Voltage in Volts
system.clk_domain.clock                          1000                       # Clock period in ticks
system.mem_ctrls.bytes_read::ruby.dir_cntrl0      2460096                       # Number of bytes read from this memory
system.mem_ctrls.bytes_read::total            2460096                       # Number of bytes read from this memory
system.mem_ctrls.num_reads::ruby.dir_cntrl0        38439                       # Number of read requests responded to by this memory
system.mem_ctrls.num_reads::total               38439                       # Number of read requests responded to by this memory
system.mem_ctrls.bw_read::ruby.dir_cntrl0     18116834                       # Total read bandwidth from this memory (bytes/s)
system.mem_ctrls.bw_read::total              18116834                       # Total read bandwidth from this memory (bytes/s)
system.mem_ctrls.bw_total::ruby.dir_cntrl0     18116834                       # Total bandwidth to/from this memory (bytes/s)
system.mem_ctrls.bw_total::total             18116834                       # Total bandwidth to/from this memory (bytes/s)
system.mem_ctrls.readReqs                       38439                       # Number of read requests accepted
system.mem_ctrls.writeReqs                          0                       # Number of write requests accepted
system.mem_ctrls.readBursts                     38439                       # Number of DRAM read bursts, including those serviced by the write queue
system.mem_ctrls.writeBursts                        0                       # Number of DRAM write bursts, including those merged in the write queue
system.mem_ctrls.bytesReadDRAM                2460096                       # Total number of bytes read from DRAM
system.mem_ctrls.bytesReadWrQ                       0                       # Total number of bytes read from write queue
system.mem_ctrls.bytesWritten                       0                       # Total number of bytes written to DRAM
system.mem_ctrls.bytesReadSys                 2460096                       # Total read bytes from the system interface side
system.mem_ctrls.bytesWrittenSys                    0                       # Total written bytes from the system interface side
system.mem_ctrls.servicedByWrQ                      0                       # Number of DRAM read bursts serviced by the write queue
system.mem_ctrls.mergedWrBursts                     0                       # Number of DRAM write bursts merged with an existing one
system.mem_ctrls.neitherReadNorWriteReqs            0                       # Number of requests that are neither read nor write
system.mem_ctrls.perBankRdBursts::0              2411                       # Per bank write bursts
system.mem_ctrls.perBankRdBursts::1              2380                       # Per bank write bursts
system.mem_ctrls.perBankRdBursts::2              2422                       # Per bank write bursts
system.mem_ctrls.perBankRdBursts::3              2406                       # Per bank write bursts
system.mem_ctrls.perBankRdBursts::4              2305                       # Per bank write bursts
system.mem_ctrls.perBankRdBursts::5              2343                       # Per bank write bursts
system.mem_ctrls.perBankRdBursts::6              2294                       # Per bank write bursts
system.mem_ctrls.perBankRdBursts::7              2346                       # Per bank write bursts
system.mem_ctrls.perBankRdBursts::8              2414                       # Per bank write bursts
system.mem_ctrls.perBankRdBursts::9              2476                       # Per bank write bursts
system.mem_ctrls.perBankRdBursts::10             2549                       # Per bank write bursts
system.mem_ctrls.perBankRdBursts::11             2592                       # Per bank write bursts
system.mem_ctrls.perBankRdBursts::12             2431                       # Per bank write bursts
system.mem_ctrls.perBankRdBursts::13             2382                       # Per bank write bursts
system.mem_ctrls.perBankRdBursts::14             2351                       # Per bank write bursts
system.mem_ctrls.perBankRdBursts::15             2337                       # Per bank write bursts
system.mem_ctrls.perBankWrBursts::0                 0                       # Per bank write bursts
system.mem_ctrls.perBankWrBursts::1                 0                       # Per bank write bursts
system.mem_ctrls.perBankWrBursts::2                 0                       # Per bank write bursts
system.mem_ctrls.perBankWrBursts::3                 0                       # Per bank write bursts
system.mem_ctrls.perBankWrBursts::4                 0                       # Per bank write bursts
system.mem_ctrls.perBankWrBursts::5                 0                       # Per bank write bursts
system.mem_ctrls.perBankWrBursts::6                 0                       # Per bank write bursts
system.mem_ctrls.perBankWrBursts::7                 0                       # Per bank write bursts
system.mem_ctrls.perBankWrBursts::8                 0                       # Per bank write bursts
system.mem_ctrls.perBankWrBursts::9                 0                       # Per bank write bursts
system.mem_ctrls.perBankWrBursts::10                0                       # Per bank write bursts
system.mem_ctrls.perBankWrBursts::11                0                       # Per bank write bursts
system.mem_ctrls.perBankWrBursts::12                0                       # Per bank write bursts
system.mem_ctrls.perBankWrBursts::13                0                       # Per bank write bursts
system.mem_ctrls.perBankWrBursts::14                0                       # Per bank write bursts
system.mem_ctrls.perBankWrBursts::15                0                       # Per bank write bursts
system.mem_ctrls.numRdRetry                         0                       # Number of times read queue was full causing retry
system.mem_ctrls.numWrRetry                         0                       # Number of times write queue was full causing retry
system.mem_ctrls.totGap                  135790519000                       # Total gap between requests
system.mem_ctrls.readPktSize::0                     0                       # Read request sizes (log2)
system.mem_ctrls.readPktSize::1                     0                       # Read request sizes (log2)
system.mem_ctrls.readPktSize::2                     0                       # Read request sizes (log2)
system.mem_ctrls.readPktSize::3                     0                       # Read request sizes (log2)
system.mem_ctrls.readPktSize::4                     0                       # Read request sizes (log2)
system.mem_ctrls.readPktSize::5                     0                       # Read request sizes (log2)
system.mem_ctrls.readPktSize::6                 38439                       # Read request sizes (log2)
system.mem_ctrls.writePktSize::0                    0                       # Write request sizes (log2)
system.mem_ctrls.writePktSize::1                    0                       # Write request sizes (log2)
system.mem_ctrls.writePktSize::2                    0                       # Write request sizes (log2)
system.mem_ctrls.writePktSize::3                    0                       # Write request sizes (log2)
system.mem_ctrls.writePktSize::4                    0                       # Write request sizes (log2)
system.mem_ctrls.writePktSize::5                    0                       # Write request sizes (log2)
system.mem_ctrls.writePktSize::6                    0                       # Write request sizes (log2)
system.mem_ctrls.rdQLenPdf::0                   38198                       # What read queue length does an incoming req see
system.mem_ctrls.rdQLenPdf::1                     241                       # What read queue length does an incoming req see
system.mem_ctrls.rdQLenPdf::2                       0                       # What read queue length does an incoming req see
system.mem_ctrls.rdQLenPdf::3                       0                       # What read queue length does an incoming req see
system.mem_ctrls.rdQLenPdf::4                       0                       # What read queue length does an incoming req see
system.mem_ctrls.rdQLenPdf::5                       0                       # What read queue length does an incoming req see
system.mem_ctrls.rdQLenPdf::6                       0                       # What read queue length does an incoming req see
system.mem_ctrls.rdQLenPdf::7                       0                       # What read queue length does an incoming req see
system.mem_ctrls.rdQLenPdf::8                       0                       # What read queue length does an incoming req see
system.mem_ctrls.rdQLenPdf::9                       0                       # What read queue length does an incoming req see
system.mem_ctrls.rdQLenPdf::10                      0                       # What read queue length does an incoming req see
system.mem_ctrls.rdQLenPdf::11                      0                       # What read queue length does an incoming req see
system.mem_ctrls.rdQLenPdf::12                      0                       # What read queue length does an incoming req see
system.mem_ctrls.rdQLenPdf::13                      0                       # What read queue length does an incoming req see
system.mem_ctrls.rdQLenPdf::14                      0                       # What read queue length does an incoming req see
system.mem_ctrls.rdQLenPdf::15                      0                       # What read queue length does an incoming req see
system.mem_ctrls.rdQLenPdf::16                      0                       # What read queue length does an incoming req see
system.mem_ctrls.rdQLenPdf::17                      0                       # What read queue length does an incoming req see
system.mem_ctrls.rdQLenPdf::18                      0                       # What read queue length does an incoming req see
system.mem_ctrls.rdQLenPdf::19                      0                       # What read queue length does an incoming req see
system.mem_ctrls.rdQLenPdf::20                      0                       # What read queue length does an incoming req see
system.mem_ctrls.rdQLenPdf::21                      0                       # What read queue length does an incoming req see
system.mem_ctrls.rdQLenPdf::22                      0                       # What read queue length does an incoming req see
system.mem_ctrls.rdQLenPdf::23                      0                       # What read queue length does an incoming req see
system.mem_ctrls.rdQLenPdf::24                      0                       # What read queue length does an incoming req see
system.mem_ctrls.rdQLenPdf::25                      0                       # What read queue length does an incoming req see
system.mem_ctrls.rdQLenPdf::26                      0                       # What read queue length does an incoming req see
system.mem_ctrls.rdQLenPdf::27                      0                       # What read queue length does an incoming req see
system.mem_ctrls.rdQLenPdf::28                      0                       # What read queue length does an incoming req see
system.mem_ctrls.rdQLenPdf::29                      0                       # What read queue length does an incoming req see
system.mem_ctrls.rdQLenPdf::30                      0                       # What read queue length does an incoming req see
system.mem_ctrls.rdQLenPdf::31                      0                       # What read queue length does an incoming req see
system.mem_ctrls.wrQLenPdf::0                       0                       # What write queue length does an incoming req see
system.mem_ctrls.wrQLenPdf::1                       0                       # What write queue length does an incoming req see
system.mem_ctrls.wrQLenPdf::2                       0                       # What write queue length does an incoming req see
system.mem_ctrls.wrQLenPdf::3                       0                       # What write queue length does an incoming req see
system.mem_ctrls.wrQLenPdf::4                       0                       # What write queue length does an incoming req see
system.mem_ctrls.wrQLenPdf::5                       0                       # What write queue length does an incoming req see
system.mem_ctrls.wrQLenPdf::6                       0                       # What write queue length does an incoming req see
system.mem_ctrls.wrQLenPdf::7                       0                       # What write queue length does an incoming req see
system.mem_ctrls.wrQLenPdf::8                       0                       # What write queue length does an incoming req see
system.mem_ctrls.wrQLenPdf::9                       0                       # What write queue length does an incoming req see
system.mem_ctrls.wrQLenPdf::10                      0                       # What write queue length does an incoming req see
system.mem_ctrls.wrQLenPdf::11                      0                       # What write queue length does an incoming req see
system.mem_ctrls.wrQLenPdf::12                      0                       # What write queue length does an incoming req see
system.mem_ctrls.wrQLenPdf::13                      0                       # What write queue length does an incoming req see
system.mem_ctrls.wrQLenPdf::14                      0                       # What write queue length does an incoming req see
system.mem_ctrls.wrQLenPdf::15                      0                       # What write queue length does an incoming req see
system.mem_ctrls.wrQLenPdf::16                      0                       # What write queue length does an incoming req see
system.mem_ctrls.wrQLenPdf::17                      0                       # What write queue length does an incoming req see
system.mem_ctrls.wrQLenPdf::18                      0                       # What write queue length does an incoming req see
system.mem_ctrls.wrQLenPdf::19                      0                       # What write queue length does an incoming req see
system.mem_ctrls.wrQLenPdf::20                      0                       # What write queue length does an incoming req see
system.mem_ctrls.wrQLenPdf::21                      0                       # What write queue length does an incoming req see
system.mem_ctrls.wrQLenPdf::22                      0                       # What write queue length does an incoming req see
system.mem_ctrls.wrQLenPdf::23                      0                       # What write queue length does an incoming req see
system.mem_ctrls.wrQLenPdf::24                      0                       # What write queue length does an incoming req see
system.mem_ctrls.wrQLenPdf::25                      0                       # What write queue length does an incoming req see
system.mem_ctrls.wrQLenPdf::26                      0                       # What write queue length does an incoming req see
system.mem_ctrls.wrQLenPdf::27                      0                       # What write queue length does an incoming req see
system.mem_ctrls.wrQLenPdf::28                      0                       # What write queue length does an incoming req see
system.mem_ctrls.wrQLenPdf::29                      0                       # What write queue length does an incoming req see
system.mem_ctrls.wrQLenPdf::30                      0                       # What write queue length does an incoming req see
system.mem_ctrls.wrQLenPdf::31                      0                       # What write queue length does an incoming req see
system.mem_ctrls.wrQLenPdf::32                      0                       # What write queue length does an incoming req see
system.mem_ctrls.wrQLenPdf::33                      0                       # What write queue length does an incoming req see
system.mem_ctrls.wrQLenPdf::34                      0                       # What write queue length does an incoming req see
system.mem_ctrls.wrQLenPdf::35                      0                       # What write queue length does an incoming req see
system.mem_ctrls.wrQLenPdf::36                      0                       # What write queue length does an incoming req see
system.mem_ctrls.wrQLenPdf::37                      0                       # What write queue length does an incoming req see
system.mem_ctrls.wrQLenPdf::38                      0                       # What write queue length does an incoming req see
system.mem_ctrls.wrQLenPdf::39                      0                       # What write queue length does an incoming req see
system.mem_ctrls.wrQLenPdf::40                      0                       # What write queue length does an incoming req see
system.mem_ctrls.wrQLenPdf::41                      0                       # What write queue length does an incoming req see
system.mem_ctrls.wrQLenPdf::42                      0                       # What write queue length does an incoming req see
system.mem_ctrls.wrQLenPdf::43                      0                       # What write queue length does an incoming req see
system.mem_ctrls.wrQLenPdf::44                      0                       # What write queue length does an incoming req see
system.mem_ctrls.wrQLenPdf::45                      0                       # What write queue length does an incoming req see
system.mem_ctrls.wrQLenPdf::46                      0                       # What write queue length does an incoming req see
system.mem_ctrls.wrQLenPdf::47                      0                       # What write queue length does an incoming req see
system.mem_ctrls.wrQLenPdf::48                      0                       # What write queue length does an incoming req see
system.mem_ctrls.wrQLenPdf::49                      0                       # What write queue length does an incoming req see
system.mem_ctrls.wrQLenPdf::50                      0                       # What write queue length does an incoming req see
system.mem_ctrls.wrQLenPdf::51                      0                       # What write queue length does an incoming req see
system.mem_ctrls.wrQLenPdf::52                      0                       # What write queue length does an incoming req see
system.mem_ctrls.wrQLenPdf::53                      0                       # What write queue length does an incoming req see
system.mem_ctrls.wrQLenPdf::54                      0                       # What write queue length does an incoming req see
system.mem_ctrls.wrQLenPdf::55                      0                       # What write queue length does an incoming req see
system.mem_ctrls.wrQLenPdf::56                      0                       # What write queue length does an incoming req see
system.mem_ctrls.wrQLenPdf::57                      0                       # What write queue length does an incoming req see
system.mem_ctrls.wrQLenPdf::58                      0                       # What write queue length does an incoming req see
system.mem_ctrls.wrQLenPdf::59                      0                       # What write queue length does an incoming req see
system.mem_ctrls.wrQLenPdf::60                      0                       # What write queue length does an incoming req see
system.mem_ctrls.wrQLenPdf::61                      0                       # What write queue length does an incoming req see
system.mem_ctrls.wrQLenPdf::62                      0                       # What write queue length does an incoming req see
system.mem_ctrls.wrQLenPdf::63                      0                       # What write queue length does an incoming req see
system.mem_ctrls.bytesPerActivate::samples        10603                       # Bytes accessed per row activation
system.mem_ctrls.bytesPerActivate::mean    231.789494                       # Bytes accessed per row activation
system.mem_ctrls.bytesPerActivate::gmean   108.496090                       # Bytes accessed per row activation
system.mem_ctrls.bytesPerActivate::stdev   349.779863                       # Bytes accessed per row activation
system.mem_ctrls.bytesPerActivate::0-127         8307     78.35%     78.35% # Bytes accessed per row activation
system.mem_ctrls.bytesPerActivate::128-255          220      2.07%     80.42% # Bytes accessed per row activation
system.mem_ctrls.bytesPerActivate::256-383          113      1.07%     81.49% # Bytes accessed per row activation
system.mem_ctrls.bytesPerActivate::384-511           93      0.88%     82.36% # Bytes accessed per row activation
system.mem_ctrls.bytesPerActivate::512-639           70      0.66%     83.02% # Bytes accessed per row activation
system.mem_ctrls.bytesPerActivate::640-767           65      0.61%     83.64% # Bytes accessed per row activation
system.mem_ctrls.bytesPerActivate::768-895           73      0.69%     84.33% # Bytes accessed per row activation
system.mem_ctrls.bytesPerActivate::896-1023          221      2.08%     86.41% # Bytes accessed per row activation
system.mem_ctrls.bytesPerActivate::1024-1151         1441     13.59%    100.00% # Bytes accessed per row activation
system.mem_ctrls.bytesPerActivate::total        10603                       # Bytes accessed per row activation
system.mem_ctrls.totQLat                    386118632                       # Total ticks spent queuing
system.mem_ctrls.totMemAccLat              1106849882                       # Total ticks spent from burst creation until serviced by the DRAM
system.mem_ctrls.totBusLat                  192195000                       # Total ticks spent in databus transfers
system.mem_ctrls.avgQLat                     10044.97                       # Average queueing delay per DRAM burst
system.mem_ctrls.avgBusLat                    5000.00                       # Average bus latency per DRAM burst
system.mem_ctrls.avgMemAccLat                28794.97                       # Average memory access latency per DRAM burst
system.mem_ctrls.avgRdBW                        18.12                       # Average DRAM read bandwidth in MiByte/s
system.mem_ctrls.avgWrBW                         0.00                       # Average achieved write bandwidth in MiByte/s
system.mem_ctrls.avgRdBWSys                     18.12                       # Average system read bandwidth in MiByte/s
system.mem_ctrls.avgWrBWSys                      0.00                       # Average system write bandwidth in MiByte/s
system.mem_ctrls.peakBW                      12800.00                       # Theoretical peak bandwidth in MiByte/s
system.mem_ctrls.busUtil                         0.14                       # Data bus utilization in percentage
system.mem_ctrls.busUtilRead                     0.14                       # Data bus utilization in percentage for reads
system.mem_ctrls.busUtilWrite                    0.00                       # Data bus utilization in percentage for writes
system.mem_ctrls.avgRdQLen                       1.01                       # Average read queue length when enqueuing
system.mem_ctrls.avgWrQLen                       0.00                       # Average write queue length when enqueuing
system.mem_ctrls.readRowHits                    27825                       # Number of row buffer hits during reads
system.mem_ctrls.writeRowHits                       0                       # Number of row buffer hits during writes
system.mem_ctrls.readRowHitRate                 72.39                       # Row buffer hit rate for reads
system.mem_ctrls.writeRowHitRate                  nan                       # Row buffer hit rate for writes
system.mem_ctrls.avgGap                    3532623.61                       # Average gap between requests
system.mem_ctrls.pageHitRate                    72.39                       # Row buffer hit rate, read and write combined
system.mem_ctrls_0.actEnergy                 40211640                       # Energy for activate commands per rank (pJ)
system.mem_ctrls_0.preEnergy                 21940875                       # Energy for precharge commands per rank (pJ)
system.mem_ctrls_0.readEnergy               147256200                       # Energy for read commands per rank (pJ)
system.mem_ctrls_0.writeEnergy                      0                       # Energy for write commands per rank (pJ)
system.mem_ctrls_0.refreshEnergy           8868777840                       # Energy for refresh commands per rank (pJ)
system.mem_ctrls_0.actBackEnergy          10027907685                       # Energy for active background per rank (pJ)
system.mem_ctrls_0.preBackEnergy          72674394000                       # Energy for precharge background per rank (pJ)
system.mem_ctrls_0.totalEnergy            91780488240                       # Total energy per rank (pJ)
system.mem_ctrls_0.averagePower            675.926713                       # Core power per rank (mW)
system.mem_ctrls_0.memoryStateTime::IDLE 120819785250                       # Time in different power states
system.mem_ctrls_0.memoryStateTime::REF    4534140000                       # Time in different power states
system.mem_ctrls_0.memoryStateTime::PRE_PDN            0                       # Time in different power states
system.mem_ctrls_0.memoryStateTime::ACT   10431477250                       # Time in different power states
system.mem_ctrls_0.memoryStateTime::ACT_PDN            0                       # Time in different power states
system.mem_ctrls_1.actEnergy                 39879000                       # Energy for activate commands per rank (pJ)
system.mem_ctrls_1.preEnergy                 21759375                       # Energy for precharge commands per rank (pJ)
system.mem_ctrls_1.readEnergy               152170200                       # Energy for read commands per rank (pJ)
system.mem_ctrls_1.writeEnergy                      0                       # Energy for write commands per rank (pJ)
system.mem_ctrls_1.refreshEnergy           8868777840                       # Energy for refresh commands per rank (pJ)
system.mem_ctrls_1.actBackEnergy          10069733430                       # Energy for active background per rank (pJ)
system.mem_ctrls_1.preBackEnergy          72637704750                       # Energy for precharge background per rank (pJ)
system.mem_ctrls_1.totalEnergy            91790024595                       # Total energy per rank (pJ)
system.mem_ctrls_1.averagePower            675.996945                       # Core power per rank (mW)
system.mem_ctrls_1.memoryStateTime::IDLE 120755165000                       # Time in different power states
system.mem_ctrls_1.memoryStateTime::REF    4534140000                       # Time in different power states
system.mem_ctrls_1.memoryStateTime::PRE_PDN            0                       # Time in different power states
system.mem_ctrls_1.memoryStateTime::ACT   10495495500                       # Time in different power states
system.mem_ctrls_1.memoryStateTime::ACT_PDN            0                       # Time in different power states
system.cpu_voltage_domain.voltage                   1                       # Voltage in Volts
system.cpu_clk_domain.clock                       500                       # Clock period in ticks
system.cpu0.apic_clk_domain.clock                8000                       # Clock period in ticks
system.cpu0.workload.num_syscalls             1042779                       # Number of system calls
system.cpu0.numCycles                       271581227                       # number of cpu cycles simulated
system.cpu0.numWorkItemsStarted                     0                       # number of work items this cpu started
system.cpu0.numWorkItemsCompleted                   0                       # number of work items this cpu completed
system.cpu0.committedInsts                   75387348                       # Number of instructions committed
system.cpu0.committedOps                    105616986                       # Number of ops (including micro ops) committed
system.cpu0.num_int_alu_accesses            105611674                       # Number of integer alu accesses
system.cpu0.num_fp_alu_accesses                  6081                       # Number of float alu accesses
system.cpu0.num_func_calls                       5250                       # number of times a function call or return occured
system.cpu0.num_conditional_control_insts     15074770                       # number of instructions that are conditional controls
system.cpu0.num_int_insts                   105611674                       # number of integer instructions
system.cpu0.num_fp_insts                         6081                       # number of float instructions
system.cpu0.num_int_register_reads          241308581                       # number of times the integer registers were read
system.cpu0.num_int_register_writes          75457768                       # number of times the integer registers were written
system.cpu0.num_fp_register_reads               10002                       # number of times the floating registers were read
system.cpu0.num_fp_register_writes               4960                       # number of times the floating registers were written
system.cpu0.num_cc_register_reads            90464373                       # number of times the CC registers were read
system.cpu0.num_cc_register_writes           30179500                       # number of times the CC registers were written
system.cpu0.num_mem_refs                     45208125                       # number of memory refs
system.cpu0.num_load_insts                   30136226                       # Number of load instructions
system.cpu0.num_store_insts                  15071899                       # Number of store instructions
system.cpu0.num_idle_cycles                  0.002000                       # Number of idle cycles
system.cpu0.num_busy_cycles              271581226.998000                       # Number of busy cycles
system.cpu0.not_idle_fraction                1.000000                       # Percentage of non-idle cycles
system.cpu0.idle_fraction                    0.000000                       # Percentage of idle cycles
system.cpu0.Branches                         15081962                       # Number of branches fetched
system.cpu0.op_class::No_OpClass                 1191      0.00%      0.00% # Class of executed instruction
system.cpu0.op_class::IntAlu                 60402874     57.19%     57.19% # Class of executed instruction
system.cpu0.op_class::IntMult                     281      0.00%     57.19% # Class of executed instruction
system.cpu0.op_class::IntDiv                      140      0.00%     57.19% # Class of executed instruction
system.cpu0.op_class::FloatAdd                   4375      0.00%     57.20% # Class of executed instruction
system.cpu0.op_class::FloatCmp                      0      0.00%     57.20% # Class of executed instruction
system.cpu0.op_class::FloatCvt                      0      0.00%     57.20% # Class of executed instruction
system.cpu0.op_class::FloatMult                     0      0.00%     57.20% # Class of executed instruction
system.cpu0.op_class::FloatDiv                      0      0.00%     57.20% # Class of executed instruction
system.cpu0.op_class::FloatSqrt                     0      0.00%     57.20% # Class of executed instruction
system.cpu0.op_class::SimdAdd                       0      0.00%     57.20% # Class of executed instruction
system.cpu0.op_class::SimdAddAcc                    0      0.00%     57.20% # Class of executed instruction
system.cpu0.op_class::SimdAlu                       0      0.00%     57.20% # Class of executed instruction
system.cpu0.op_class::SimdCmp                       0      0.00%     57.20% # Class of executed instruction
system.cpu0.op_class::SimdCvt                       0      0.00%     57.20% # Class of executed instruction
system.cpu0.op_class::SimdMisc                      0      0.00%     57.20% # Class of executed instruction
system.cpu0.op_class::SimdMult                      0      0.00%     57.20% # Class of executed instruction
system.cpu0.op_class::SimdMultAcc                   0      0.00%     57.20% # Class of executed instruction
system.cpu0.op_class::SimdShift                     0      0.00%     57.20% # Class of executed instruction
system.cpu0.op_class::SimdShiftAcc                  0      0.00%     57.20% # Class of executed instruction
system.cpu0.op_class::SimdSqrt                      0      0.00%     57.20% # Class of executed instruction
system.cpu0.op_class::SimdFloatAdd                  0      0.00%     57.20% # Class of executed instruction
system.cpu0.op_class::SimdFloatAlu                  0      0.00%     57.20% # Class of executed instruction
system.cpu0.op_class::SimdFloatCmp                  0      0.00%     57.20% # Class of executed instruction
system.cpu0.op_class::SimdFloatCvt                  0      0.00%     57.20% # Class of executed instruction
system.cpu0.op_class::SimdFloatDiv                  0      0.00%     57.20% # Class of executed instruction
system.cpu0.op_class::SimdFloatMisc                 0      0.00%     57.20% # Class of executed instruction
system.cpu0.op_class::SimdFloatMult                 0      0.00%     57.20% # Class of executed instruction
system.cpu0.op_class::SimdFloatMultAcc              0      0.00%     57.20% # Class of executed instruction
system.cpu0.op_class::SimdFloatSqrt                 0      0.00%     57.20% # Class of executed instruction
system.cpu0.op_class::MemRead                30136226     28.53%     85.73% # Class of executed instruction
system.cpu0.op_class::MemWrite               15071899     14.27%    100.00% # Class of executed instruction
system.cpu0.op_class::IprAccess                     0      0.00%    100.00% # Class of executed instruction
system.cpu0.op_class::InstPrefetch                  0      0.00%    100.00% # Class of executed instruction
system.cpu0.op_class::total                 105616986                       # Class of executed instruction
system.cpu1.apic_clk_domain.clock                8000                       # Clock period in ticks
system.cpu1.numCycles                       271392660                       # number of cpu cycles simulated
system.cpu1.numWorkItemsStarted                     0                       # number of work items this cpu started
system.cpu1.numWorkItemsCompleted                   0                       # number of work items this cpu completed
system.cpu1.committedInsts                   45394728                       # Number of instructions committed
system.cpu1.committedOps                    107692146                       # Number of ops (including micro ops) committed
system.cpu1.num_int_alu_accesses             95582024                       # Number of integer alu accesses
system.cpu1.num_fp_alu_accesses              17525060                       # Number of float alu accesses
system.cpu1.num_func_calls                    3064309                       # number of times a function call or return occured
system.cpu1.num_conditional_control_insts      6631100                       # number of instructions that are conditional controls
system.cpu1.num_int_insts                    95582024                       # number of integer instructions
system.cpu1.num_fp_insts                     17525060                       # number of float instructions
system.cpu1.num_int_register_reads          186457739                       # number of times the integer registers were read
system.cpu1.num_int_register_writes          81776102                       # number of times the integer registers were written
system.cpu1.num_fp_register_reads            27221880                       # number of times the floating registers were read
system.cpu1.num_fp_register_writes           17138420                       # number of times the floating registers were written
system.cpu1.num_cc_register_reads            58512423                       # number of times the CC registers were read
system.cpu1.num_cc_register_writes           32175461                       # number of times the CC registers were written
system.cpu1.num_mem_refs                     19703858                       # number of memory refs
system.cpu1.num_load_insts                   14346345                       # Number of load instructions
system.cpu1.num_store_insts                   5357513                       # Number of store instructions
system.cpu1.num_idle_cycles              48902470.955805                       # Number of idle cycles
system.cpu1.num_busy_cycles              222490189.044195                       # Number of busy cycles
system.cpu1.not_idle_fraction                0.819809                       # Percentage of non-idle cycles
system.cpu1.idle_fraction                    0.180191                       # Percentage of idle cycles
system.cpu1.Branches                         10716598                       # Number of branches fetched
system.cpu1.op_class::No_OpClass               936691      0.87%      0.87% # Class of executed instruction
system.cpu1.op_class::IntAlu                 72525726     67.35%     68.22% # Class of executed instruction
system.cpu1.op_class::IntMult                  222366      0.21%     68.42% # Class of executed instruction
system.cpu1.op_class::IntDiv                  4684315      4.35%     72.77% # Class of executed instruction
system.cpu1.op_class::FloatAdd                9619190      8.93%     81.70% # Class of executed instruction
system.cpu1.op_class::FloatCmp                      0      0.00%     81.70% # Class of executed instruction
system.cpu1.op_class::FloatCvt                      0      0.00%     81.70% # Class of executed instruction
system.cpu1.op_class::FloatMult                     0      0.00%     81.70% # Class of executed instruction
system.cpu1.op_class::FloatDiv                      0      0.00%     81.70% # Class of executed instruction
system.cpu1.op_class::FloatSqrt                     0      0.00%     81.70% # Class of executed instruction
system.cpu1.op_class::SimdAdd                       0      0.00%     81.70% # Class of executed instruction
system.cpu1.op_class::SimdAddAcc                    0      0.00%     81.70% # Class of executed instruction
system.cpu1.op_class::SimdAlu                       0      0.00%     81.70% # Class of executed instruction
system.cpu1.op_class::SimdCmp                       0      0.00%     81.70% # Class of executed instruction
system.cpu1.op_class::SimdCvt                       0      0.00%     81.70% # Class of executed instruction
system.cpu1.op_class::SimdMisc                      0      0.00%     81.70% # Class of executed instruction
system.cpu1.op_class::SimdMult                      0      0.00%     81.70% # Class of executed instruction
system.cpu1.op_class::SimdMultAcc                   0      0.00%     81.70% # Class of executed instruction
system.cpu1.op_class::SimdShift                     0      0.00%     81.70% # Class of executed instruction
system.cpu1.op_class::SimdShiftAcc                  0      0.00%     81.70% # Class of executed instruction
system.cpu1.op_class::SimdSqrt                      0      0.00%     81.70% # Class of executed instruction
system.cpu1.op_class::SimdFloatAdd                  0      0.00%     81.70% # Class of executed instruction
system.cpu1.op_class::SimdFloatAlu                  0      0.00%     81.70% # Class of executed instruction
system.cpu1.op_class::SimdFloatCmp                  0      0.00%     81.70% # Class of executed instruction
system.cpu1.op_class::SimdFloatCvt                  0      0.00%     81.70% # Class of executed instruction
system.cpu1.op_class::SimdFloatDiv                  0      0.00%     81.70% # Class of executed instruction
system.cpu1.op_class::SimdFloatMisc                 0      0.00%     81.70% # Class of executed instruction
system.cpu1.op_class::SimdFloatMult                 0      0.00%     81.70% # Class of executed instruction
system.cpu1.op_class::SimdFloatMultAcc              0      0.00%     81.70% # Class of executed instruction
system.cpu1.op_class::SimdFloatSqrt                 0      0.00%     81.70% # Class of executed instruction
system.cpu1.op_class::MemRead                14346345     13.32%     95.03% # Class of executed instruction
system.cpu1.op_class::MemWrite                5357513      4.97%    100.00% # Class of executed instruction
system.cpu1.op_class::IprAccess                     0      0.00%    100.00% # Class of executed instruction
system.cpu1.op_class::InstPrefetch                  0      0.00%    100.00% # Class of executed instruction
system.cpu1.op_class::total                 107692146                       # Class of executed instruction
system.cpu2.apic_clk_domain.clock                8000                       # Clock period in ticks
system.cpu2.numCycles                       249518057                       # number of cpu cycles simulated
system.cpu2.numWorkItemsStarted                     0                       # number of work items this cpu started
system.cpu2.numWorkItemsCompleted                   0                       # number of work items this cpu completed
system.cpu2.committedInsts                   39304029                       # Number of instructions committed
system.cpu2.committedOps                     92910599                       # Number of ops (including micro ops) committed
system.cpu2.num_int_alu_accesses             82732065                       # Number of integer alu accesses
system.cpu2.num_fp_alu_accesses              14604258                       # Number of float alu accesses
system.cpu2.num_func_calls                    2727059                       # number of times a function call or return occured
system.cpu2.num_conditional_control_insts      5612815                       # number of instructions that are conditional controls
system.cpu2.num_int_insts                    82732065                       # number of integer instructions
system.cpu2.num_fp_insts                     14604258                       # number of float instructions
system.cpu2.num_int_register_reads          160892054                       # number of times the integer registers were read
system.cpu2.num_int_register_writes          70533229                       # number of times the integer registers were written
system.cpu2.num_fp_register_reads            22684962                       # number of times the floating registers were read
system.cpu2.num_fp_register_writes           14282058                       # number of times the floating registers were written
system.cpu2.num_cc_register_reads            49281911                       # number of times the CC registers were read
system.cpu2.num_cc_register_writes           27420591                       # number of times the CC registers were written
system.cpu2.num_mem_refs                     17070632                       # number of memory refs
system.cpu2.num_load_insts                   12258984                       # Number of load instructions
system.cpu2.num_store_insts                   4811648                       # Number of store instructions
system.cpu2.num_idle_cycles              65059536.518186                       # Number of idle cycles
system.cpu2.num_busy_cycles              184458520.481814                       # Number of busy cycles
system.cpu2.not_idle_fraction                0.739259                       # Percentage of non-idle cycles
system.cpu2.idle_fraction                    0.260741                       # Percentage of idle cycles
system.cpu2.Branches                          9190894                       # Number of branches fetched
system.cpu2.op_class::No_OpClass               780601      0.84%      0.84% # Class of executed instruction
system.cpu2.op_class::IntAlu                 62954330     67.76%     68.60% # Class of executed instruction
system.cpu2.op_class::IntMult                  185306      0.20%     68.80% # Class of executed instruction
system.cpu2.op_class::IntDiv                  3903697      4.20%     73.00% # Class of executed instruction
system.cpu2.op_class::FloatAdd                8016033      8.63%     81.63% # Class of executed instruction
system.cpu2.op_class::FloatCmp                      0      0.00%     81.63% # Class of executed instruction
system.cpu2.op_class::FloatCvt                      0      0.00%     81.63% # Class of executed instruction
system.cpu2.op_class::FloatMult                     0      0.00%     81.63% # Class of executed instruction
system.cpu2.op_class::FloatDiv                      0      0.00%     81.63% # Class of executed instruction
system.cpu2.op_class::FloatSqrt                     0      0.00%     81.63% # Class of executed instruction
system.cpu2.op_class::SimdAdd                       0      0.00%     81.63% # Class of executed instruction
system.cpu2.op_class::SimdAddAcc                    0      0.00%     81.63% # Class of executed instruction
system.cpu2.op_class::SimdAlu                       0      0.00%     81.63% # Class of executed instruction
system.cpu2.op_class::SimdCmp                       0      0.00%     81.63% # Class of executed instruction
system.cpu2.op_class::SimdCvt                       0      0.00%     81.63% # Class of executed instruction
system.cpu2.op_class::SimdMisc                      0      0.00%     81.63% # Class of executed instruction
system.cpu2.op_class::SimdMult                      0      0.00%     81.63% # Class of executed instruction
system.cpu2.op_class::SimdMultAcc                   0      0.00%     81.63% # Class of executed instruction
system.cpu2.op_class::SimdShift                     0      0.00%     81.63% # Class of executed instruction
system.cpu2.op_class::SimdShiftAcc                  0      0.00%     81.63% # Class of executed instruction
system.cpu2.op_class::SimdSqrt                      0      0.00%     81.63% # Class of executed instruction
system.cpu2.op_class::SimdFloatAdd                  0      0.00%     81.63% # Class of executed instruction
system.cpu2.op_class::SimdFloatAlu                  0      0.00%     81.63% # Class of executed instruction
system.cpu2.op_class::SimdFloatCmp                  0      0.00%     81.63% # Class of executed instruction
system.cpu2.op_class::SimdFloatCvt                  0      0.00%     81.63% # Class of executed instruction
system.cpu2.op_class::SimdFloatDiv                  0      0.00%     81.63% # Class of executed instruction
system.cpu2.op_class::SimdFloatMisc                 0      0.00%     81.63% # Class of executed instruction
system.cpu2.op_class::SimdFloatMult                 0      0.00%     81.63% # Class of executed instruction
system.cpu2.op_class::SimdFloatMultAcc              0      0.00%     81.63% # Class of executed instruction
system.cpu2.op_class::SimdFloatSqrt                 0      0.00%     81.63% # Class of executed instruction
system.cpu2.op_class::MemRead                12258984     13.19%     94.82% # Class of executed instruction
system.cpu2.op_class::MemWrite                4811648      5.18%    100.00% # Class of executed instruction
system.cpu2.op_class::IprAccess                     0      0.00%    100.00% # Class of executed instruction
system.cpu2.op_class::InstPrefetch                  0      0.00%    100.00% # Class of executed instruction
system.cpu2.op_class::total                  92910599                       # Class of executed instruction
system.ruby.clk_domain.clock                      500                       # Clock period in ticks
system.ruby.delayHist::bucket_size                  8                       # delay histogram for all message
system.ruby.delayHist::max_bucket                  79                       # delay histogram for all message
system.ruby.delayHist::samples               25182985                       # delay histogram for all message
system.ruby.delayHist::mean                  0.884249                       # delay histogram for all message
system.ruby.delayHist::stdev                 2.182713                       # delay histogram for all message
system.ruby.delayHist                    |    24085937     95.64%     95.64% |     1087990      4.32%     99.96% |        9031      0.04%    100.00% |          26      0.00%    100.00% |           0      0.00%    100.00% |           1      0.00%    100.00% |           0      0.00%    100.00% |           0      0.00%    100.00% |           0      0.00%    100.00% |           0      0.00%    100.00% # delay histogram for all message
system.ruby.delayHist::total                 25182985                       # delay histogram for all message
system.ruby.outstanding_req_hist::bucket_size            1                      
system.ruby.outstanding_req_hist::max_bucket            9                      
system.ruby.outstanding_req_hist::samples    282253315                      
system.ruby.outstanding_req_hist::mean       1.000540                      
system.ruby.outstanding_req_hist::gmean      1.000374                      
system.ruby.outstanding_req_hist::stdev      0.023230                      
system.ruby.outstanding_req_hist         |           0      0.00%      0.00% |   282100926     99.95%     99.95% |      152389      0.05%    100.00% |           0      0.00%    100.00% |           0      0.00%    100.00% |           0      0.00%    100.00% |           0      0.00%    100.00% |           0      0.00%    100.00% |           0      0.00%    100.00% |           0      0.00%    100.00%
system.ruby.outstanding_req_hist::total     282253315                      
system.ruby.latency_hist::bucket_size             128                      
system.ruby.latency_hist::max_bucket             1279                      
system.ruby.latency_hist::samples           282253315                      
system.ruby.latency_hist::mean               1.463096                      
system.ruby.latency_hist::gmean              1.054190                      
system.ruby.latency_hist::stdev              4.227317                      
system.ruby.latency_hist                 |   282240589    100.00%    100.00% |       11443      0.00%    100.00% |         126      0.00%    100.00% |         237      0.00%    100.00% |         604      0.00%    100.00% |         316      0.00%    100.00% |           0      0.00%    100.00% |           0      0.00%    100.00% |           0      0.00%    100.00% |           0      0.00%    100.00%
system.ruby.latency_hist::total             282253315                      
system.ruby.hit_latency_hist::bucket_size          128                      
system.ruby.hit_latency_hist::max_bucket         1279                      
system.ruby.hit_latency_hist::samples       282253315                      
system.ruby.hit_latency_hist::mean           1.463096                      
system.ruby.hit_latency_hist::gmean          1.054190                      
system.ruby.hit_latency_hist::stdev          4.227317                      
system.ruby.hit_latency_hist             |   282240589    100.00%    100.00% |       11443      0.00%    100.00% |         126      0.00%    100.00% |         237      0.00%    100.00% |         604      0.00%    100.00% |         316      0.00%    100.00% |           0      0.00%    100.00% |           0      0.00%    100.00% |           0      0.00%    100.00% |           0      0.00%    100.00%
system.ruby.hit_latency_hist::total         282253315                      
system.ruby.l0_cntrl0.Dcache.demand_hits     45207560                       # Number of cache demand hits
system.ruby.l0_cntrl0.Dcache.demand_misses          615                       # Number of cache demand misses
system.ruby.l0_cntrl0.Dcache.demand_accesses     45208175                       # Number of cache demand accesses
system.ruby.l0_cntrl0.Icache.demand_hits     90475298                       # Number of cache demand hits
system.ruby.l0_cntrl0.Icache.demand_misses         1558                       # Number of cache demand misses
system.ruby.l0_cntrl0.Icache.demand_accesses     90476856                       # Number of cache demand accesses
system.ruby.l0_cntrl0.Zcache.demand_hits            0                       # Number of cache demand hits
system.ruby.l0_cntrl0.Zcache.demand_misses            0                       # Number of cache demand misses
system.ruby.l0_cntrl0.Zcache.demand_accesses            0                       # Number of cache demand accesses
system.ruby.l0_cntrl1.Dcache.demand_hits     17426264                       # Number of cache demand hits
system.ruby.l0_cntrl1.Dcache.demand_misses      2360688                       # Number of cache demand misses
system.ruby.l0_cntrl1.Dcache.demand_accesses     19786952                       # Number of cache demand accesses
system.ruby.l0_cntrl1.Icache.demand_hits     58715134                       # Number of cache demand hits
system.ruby.l0_cntrl1.Icache.demand_misses          756                       # Number of cache demand misses
system.ruby.l0_cntrl1.Icache.demand_accesses     58715890                       # Number of cache demand accesses
system.ruby.l0_cntrl1.Zcache.demand_hits            0                       # Number of cache demand hits
system.ruby.l0_cntrl1.Zcache.demand_misses            0                       # Number of cache demand misses
system.ruby.l0_cntrl1.Zcache.demand_accesses            0                       # Number of cache demand accesses
system.ruby.l0_cntrl2.Dcache.demand_hits     14864704                       # Number of cache demand hits
system.ruby.l0_cntrl2.Dcache.demand_misses      2275173                       # Number of cache demand misses
system.ruby.l0_cntrl2.Dcache.demand_accesses     17139877                       # Number of cache demand accesses
system.ruby.l0_cntrl2.Icache.demand_hits     50924918                       # Number of cache demand hits
system.ruby.l0_cntrl2.Icache.demand_misses          647                       # Number of cache demand misses
system.ruby.l0_cntrl2.Icache.demand_accesses     50925565                       # Number of cache demand accesses
system.ruby.l0_cntrl2.Zcache.demand_hits            0                       # Number of cache demand hits
system.ruby.l0_cntrl2.Zcache.demand_misses            0                       # Number of cache demand misses
system.ruby.l0_cntrl2.Zcache.demand_accesses            0                       # Number of cache demand accesses
system.ruby.l1_cntrl0.cache.demand_hits           501                       # Number of cache demand hits
system.ruby.l1_cntrl0.cache.demand_misses         1672                       # Number of cache demand misses
system.ruby.l1_cntrl0.cache.demand_accesses         2173                       # Number of cache demand accesses
system.ruby.l1_cntrl1.cache.demand_hits        340224                       # Number of cache demand hits
system.ruby.l1_cntrl1.cache.demand_misses      2021220                       # Number of cache demand misses
system.ruby.l1_cntrl1.cache.demand_accesses      2361444                       # Number of cache demand accesses
system.ruby.l1_cntrl2.cache.demand_hits        287522                       # Number of cache demand hits
system.ruby.l1_cntrl2.cache.demand_misses      1988298                       # Number of cache demand misses
system.ruby.l1_cntrl2.cache.demand_accesses      2275820                       # Number of cache demand accesses
system.ruby.l2_cntrl0.L2cache.demand_hits      1337930                       # Number of cache demand hits
system.ruby.l2_cntrl0.L2cache.demand_misses      2673260                       # Number of cache demand misses
system.ruby.l2_cntrl0.L2cache.demand_accesses      4011190                       # Number of cache demand accesses
system.ruby.memctrl_clk_domain.clock             1500                       # Clock period in ticks
system.ruby.network.routers0.percent_links_utilized            0                      
system.ruby.network.routers1.percent_links_utilized            0                      
system.ruby.network.routers2.percent_links_utilized            0                      
system.ruby.network.routers3.percent_links_utilized     0.001827                      
system.ruby.network.routers3.msg_count.Control::0         1672                      
system.ruby.network.routers3.msg_count.Request_Control::2           93                      
system.ruby.network.routers3.msg_count.Response_Data::1         1820                      
system.ruby.network.routers3.msg_count.Response_Control::1           51                      
system.ruby.network.routers3.msg_count.Response_Control::2         1650                      
system.ruby.network.routers3.msg_bytes.Control::0        13376                      
system.ruby.network.routers3.msg_bytes.Request_Control::2          744                      
system.ruby.network.routers3.msg_bytes.Response_Data::1       131040                      
system.ruby.network.routers3.msg_bytes.Response_Control::1          408                      
system.ruby.network.routers3.msg_bytes.Response_Control::2        13200                      
system.ruby.network.routers4.percent_links_utilized     3.445208                      
system.ruby.network.routers4.msg_count.Control::0      2021220                      
system.ruby.network.routers4.msg_count.Request_Control::2      1823563                      
system.ruby.network.routers4.msg_count.Response_Data::1      3324559                      
system.ruby.network.routers4.msg_count.Response_Control::1      1586358                      
system.ruby.network.routers4.msg_count.Response_Control::2      1848997                      
system.ruby.network.routers4.msg_count.Writeback_Data::0        24961                      
system.ruby.network.routers4.msg_count.Writeback_Control::0          334                      
system.ruby.network.routers4.msg_bytes.Control::0     16169760                      
system.ruby.network.routers4.msg_bytes.Request_Control::2     14588504                      
system.ruby.network.routers4.msg_bytes.Response_Data::1    239368248                      
system.ruby.network.routers4.msg_bytes.Response_Control::1     12690864                      
system.ruby.network.routers4.msg_bytes.Response_Control::2     14791976                      
system.ruby.network.routers4.msg_bytes.Writeback_Data::0      1797192                      
system.ruby.network.routers4.msg_bytes.Writeback_Control::0         2672                      
system.ruby.network.routers5.percent_links_utilized     3.410498                      
system.ruby.network.routers5.msg_count.Control::0      1988298                      
system.ruby.network.routers5.msg_count.Request_Control::2      1823422                      
system.ruby.network.routers5.msg_count.Response_Data::1      3291395                      
system.ruby.network.routers5.msg_count.Response_Control::1      1582191                      
system.ruby.network.routers5.msg_count.Response_Control::2      1844787                      
system.ruby.network.routers5.msg_count.Writeback_Data::0        20840                      
system.ruby.network.routers5.msg_count.Writeback_Control::0          274                      
system.ruby.network.routers5.msg_bytes.Control::0     15906384                      
system.ruby.network.routers5.msg_bytes.Request_Control::2     14587376                      
system.ruby.network.routers5.msg_bytes.Response_Data::1    236980440                      
system.ruby.network.routers5.msg_bytes.Response_Control::1     12657528                      
system.ruby.network.routers5.msg_bytes.Response_Control::2     14758296                      
system.ruby.network.routers5.msg_bytes.Writeback_Data::0      1500480                      
system.ruby.network.routers5.msg_bytes.Writeback_Control::0         2192                      
system.ruby.network.routers6.percent_links_utilized     2.359103                      
system.ruby.network.routers6.msg_count.Control::0      4049629                      
system.ruby.network.routers6.msg_count.Request_Control::2      3647064                      
system.ruby.network.routers6.msg_count.Response_Data::1      1415050                      
system.ruby.network.routers6.msg_count.Response_Control::1      1087128                      
system.ruby.network.routers6.msg_count.Response_Control::2      3695434                      
system.ruby.network.routers6.msg_count.Writeback_Data::0        45801                      
system.ruby.network.routers6.msg_count.Writeback_Control::0          608                      
system.ruby.network.routers6.msg_bytes.Control::0     32397032                      
system.ruby.network.routers6.msg_bytes.Request_Control::2     29176512                      
system.ruby.network.routers6.msg_bytes.Response_Data::1    101883600                      
system.ruby.network.routers6.msg_bytes.Response_Control::1      8697024                      
system.ruby.network.routers6.msg_bytes.Response_Control::2     29563472                      
system.ruby.network.routers6.msg_bytes.Writeback_Data::0      3297672                      
system.ruby.network.routers6.msg_bytes.Writeback_Control::0         4864                      
system.ruby.network.routers7.percent_links_utilized     0.035384                      
system.ruby.network.routers7.msg_count.Control::0        38439                      
system.ruby.network.routers7.msg_count.Response_Data::1        38439                      
system.ruby.network.routers7.msg_bytes.Control::0       307512                      
system.ruby.network.routers7.msg_bytes.Response_Data::1      2767608                      
system.ruby.network.routers8.percent_links_utilized     1.159452                      
system.ruby.network.routers8.msg_count.Control::0      4049629                      
system.ruby.network.routers8.msg_count.Request_Control::2      3647078                      
system.ruby.network.routers8.msg_count.Response_Data::1      4049871                      
system.ruby.network.routers8.msg_count.Response_Control::1      2127864                      
system.ruby.network.routers8.msg_count.Response_Control::2      3695434                      
system.ruby.network.routers8.msg_count.Writeback_Data::0        45801                      
system.ruby.network.routers8.msg_count.Writeback_Control::0          608                      
system.ruby.network.routers8.msg_bytes.Control::0     32397032                      
system.ruby.network.routers8.msg_bytes.Request_Control::2     29176624                      
system.ruby.network.routers8.msg_bytes.Response_Data::1    291590712                      
system.ruby.network.routers8.msg_bytes.Response_Control::1     17022912                      
system.ruby.network.routers8.msg_bytes.Response_Control::2     29563472                      
system.ruby.network.routers8.msg_bytes.Writeback_Data::0      3297672                      
system.ruby.network.routers8.msg_bytes.Writeback_Control::0         4864                      
system.ruby.network.msg_count.Control        12148887                      
system.ruby.network.msg_count.Request_Control     10941220                      
system.ruby.network.msg_count.Response_Data     12121134                      
system.ruby.network.msg_count.Response_Control     17469894                      
system.ruby.network.msg_count.Writeback_Data       137403                      
system.ruby.network.msg_count.Writeback_Control         1824                      
system.ruby.network.msg_byte.Control         97191096                      
system.ruby.network.msg_byte.Request_Control     87529760                      
system.ruby.network.msg_byte.Response_Data    872721648                      
system.ruby.network.msg_byte.Response_Control    139759152                      
system.ruby.network.msg_byte.Writeback_Data      9893016                      
system.ruby.network.msg_byte.Writeback_Control        14592                      
system.ruby.network.routers0.throttle0.link_utilization            0                      
system.ruby.network.routers0.throttle1.link_utilization            0                      
system.ruby.network.routers1.throttle0.link_utilization            0                      
system.ruby.network.routers1.throttle1.link_utilization            0                      
system.ruby.network.routers2.throttle0.link_utilization            0                      
system.ruby.network.routers2.throttle1.link_utilization            0                      
system.ruby.network.routers3.throttle0.link_utilization     0.002772                      
system.ruby.network.routers3.throttle0.msg_count.Request_Control::2           93                      
system.ruby.network.routers3.throttle0.msg_count.Response_Data::1         1658                      
system.ruby.network.routers3.throttle0.msg_count.Response_Control::1           41                      
system.ruby.network.routers3.throttle0.msg_bytes.Request_Control::2          744                      
system.ruby.network.routers3.throttle0.msg_bytes.Response_Data::1       119376                      
system.ruby.network.routers3.throttle0.msg_bytes.Response_Control::1          328                      
system.ruby.network.routers3.throttle1.link_utilization     0.000882                      
system.ruby.network.routers3.throttle1.msg_count.Control::0         1672                      
system.ruby.network.routers3.throttle1.msg_count.Response_Data::1          162                      
system.ruby.network.routers3.throttle1.msg_count.Response_Control::1           10                      
system.ruby.network.routers3.throttle1.msg_count.Response_Control::2         1650                      
system.ruby.network.routers3.throttle1.msg_bytes.Control::0        13376                      
system.ruby.network.routers3.throttle1.msg_bytes.Response_Data::1        11664                      
system.ruby.network.routers3.throttle1.msg_bytes.Response_Control::1           80                      
system.ruby.network.routers3.throttle1.msg_bytes.Response_Control::2        13200                      
system.ruby.network.routers4.throttle0.link_utilization     3.018883                      
system.ruby.network.routers4.throttle0.msg_count.Request_Control::2      1823563                      
system.ruby.network.routers4.throttle0.msg_count.Response_Data::1      1500877                      
system.ruby.network.routers4.throttle0.msg_count.Response_Control::1      1065984                      
system.ruby.network.routers4.throttle0.msg_bytes.Request_Control::2     14588504                      
system.ruby.network.routers4.throttle0.msg_bytes.Response_Data::1    108063144                      
system.ruby.network.routers4.throttle0.msg_bytes.Response_Control::1      8527872                      
system.ruby.network.routers4.throttle1.link_utilization     3.871533                      
system.ruby.network.routers4.throttle1.msg_count.Control::0      2021220                      
system.ruby.network.routers4.throttle1.msg_count.Response_Data::1      1823682                      
system.ruby.network.routers4.throttle1.msg_count.Response_Control::1       520374                      
system.ruby.network.routers4.throttle1.msg_count.Response_Control::2      1848997                      
system.ruby.network.routers4.throttle1.msg_count.Writeback_Data::0        24961                      
system.ruby.network.routers4.throttle1.msg_count.Writeback_Control::0          334                      
system.ruby.network.routers4.throttle1.msg_bytes.Control::0     16169760                      
system.ruby.network.routers4.throttle1.msg_bytes.Response_Data::1    131305104                      
system.ruby.network.routers4.throttle1.msg_bytes.Response_Control::1      4162992                      
system.ruby.network.routers4.throttle1.msg_bytes.Response_Control::2     14791976                      
system.ruby.network.routers4.throttle1.msg_bytes.Writeback_Data::0      1797192                      
system.ruby.network.routers4.throttle1.msg_bytes.Writeback_Control::0         2672                      
system.ruby.network.routers5.throttle0.link_utilization     2.963512                      
system.ruby.network.routers5.throttle0.msg_count.Request_Control::2      1823422                      
system.ruby.network.routers5.throttle0.msg_count.Response_Data::1      1467936                      
system.ruby.network.routers5.throttle0.msg_count.Response_Control::1      1061839                      
system.ruby.network.routers5.throttle0.msg_bytes.Request_Control::2     14587376                      
system.ruby.network.routers5.throttle0.msg_bytes.Response_Data::1    105691392                      
system.ruby.network.routers5.throttle0.msg_bytes.Response_Control::1      8494712                      
system.ruby.network.routers5.throttle1.link_utilization     3.857483                      
system.ruby.network.routers5.throttle1.msg_count.Control::0      1988298                      
system.ruby.network.routers5.throttle1.msg_count.Response_Data::1      1823459                      
system.ruby.network.routers5.throttle1.msg_count.Response_Control::1       520352                      
system.ruby.network.routers5.throttle1.msg_count.Response_Control::2      1844787                      
system.ruby.network.routers5.throttle1.msg_count.Writeback_Data::0        20840                      
system.ruby.network.routers5.throttle1.msg_count.Writeback_Control::0          274                      
system.ruby.network.routers5.throttle1.msg_bytes.Control::0     15906384                      
system.ruby.network.routers5.throttle1.msg_bytes.Response_Data::1    131289048                      
system.ruby.network.routers5.throttle1.msg_bytes.Response_Control::1      4162816                      
system.ruby.network.routers5.throttle1.msg_bytes.Response_Control::2     14758296                      
system.ruby.network.routers5.throttle1.msg_bytes.Writeback_Data::0      1500480                      
system.ruby.network.routers5.throttle1.msg_bytes.Writeback_Control::0         2192                      
system.ruby.network.routers6.throttle0.link_utilization     3.283371                      
system.ruby.network.routers6.throttle0.msg_count.Control::0      4011190                      
system.ruby.network.routers6.throttle0.msg_count.Response_Data::1      1079400                      
system.ruby.network.routers6.throttle0.msg_count.Response_Control::2      3695434                      
system.ruby.network.routers6.throttle0.msg_count.Writeback_Data::0        45801                      
system.ruby.network.routers6.throttle0.msg_count.Writeback_Control::0          608                      
system.ruby.network.routers6.throttle0.msg_bytes.Control::0     32089520                      
system.ruby.network.routers6.throttle0.msg_bytes.Response_Data::1     77716800                      
system.ruby.network.routers6.throttle0.msg_bytes.Response_Control::2     29563472                      
system.ruby.network.routers6.throttle0.msg_bytes.Writeback_Data::0      3297672                      
system.ruby.network.routers6.throttle0.msg_bytes.Writeback_Control::0         4864                      
system.ruby.network.routers6.throttle1.link_utilization     1.434834                      
system.ruby.network.routers6.throttle1.msg_count.Control::0        38439                      
system.ruby.network.routers6.throttle1.msg_count.Request_Control::2      3647064                      
system.ruby.network.routers6.throttle1.msg_count.Response_Data::1       335650                      
system.ruby.network.routers6.throttle1.msg_count.Response_Control::1      1087128                      
system.ruby.network.routers6.throttle1.msg_bytes.Control::0       307512                      
system.ruby.network.routers6.throttle1.msg_bytes.Request_Control::2     29176512                      
system.ruby.network.routers6.throttle1.msg_bytes.Response_Data::1     24166800                      
system.ruby.network.routers6.throttle1.msg_bytes.Response_Control::1      8697024                      
system.ruby.network.routers7.throttle0.link_utilization     0.007077                      
system.ruby.network.routers7.throttle0.msg_count.Control::0        38439                      
system.ruby.network.routers7.throttle0.msg_bytes.Control::0       307512                      
system.ruby.network.routers7.throttle1.link_utilization     0.063692                      
system.ruby.network.routers7.throttle1.msg_count.Response_Data::1        38439                      
system.ruby.network.routers7.throttle1.msg_bytes.Response_Data::1      2767608                      
system.ruby.network.routers8.throttle0.link_utilization            0                      
system.ruby.network.routers8.throttle1.link_utilization            0                      
system.ruby.network.routers8.throttle2.link_utilization            0                      
system.ruby.network.routers8.throttle3.link_utilization     0.002772                      
system.ruby.network.routers8.throttle3.msg_count.Request_Control::2           93                      
system.ruby.network.routers8.throttle3.msg_count.Response_Data::1         1658                      
system.ruby.network.routers8.throttle3.msg_count.Response_Control::1           41                      
system.ruby.network.routers8.throttle3.msg_bytes.Request_Control::2          744                      
system.ruby.network.routers8.throttle3.msg_bytes.Response_Data::1       119376                      
system.ruby.network.routers8.throttle3.msg_bytes.Response_Control::1          328                      
system.ruby.network.routers8.throttle4.link_utilization     3.018883                      
system.ruby.network.routers8.throttle4.msg_count.Request_Control::2      1823563                      
system.ruby.network.routers8.throttle4.msg_count.Response_Data::1      1500877                      
system.ruby.network.routers8.throttle4.msg_count.Response_Control::1      1065984                      
system.ruby.network.routers8.throttle4.msg_bytes.Request_Control::2     14588504                      
system.ruby.network.routers8.throttle4.msg_bytes.Response_Data::1    108063144                      
system.ruby.network.routers8.throttle4.msg_bytes.Response_Control::1      8527872                      
system.ruby.network.routers8.throttle5.link_utilization     2.963512                      
system.ruby.network.routers8.throttle5.msg_count.Request_Control::2      1823422                      
system.ruby.network.routers8.throttle5.msg_count.Response_Data::1      1467936                      
system.ruby.network.routers8.throttle5.msg_count.Response_Control::1      1061839                      
system.ruby.network.routers8.throttle5.msg_bytes.Request_Control::2     14587376                      
system.ruby.network.routers8.throttle5.msg_bytes.Response_Data::1    105691392                      
system.ruby.network.routers8.throttle5.msg_bytes.Response_Control::1      8494712                      
system.ruby.network.routers8.throttle6.link_utilization     3.283371                      
system.ruby.network.routers8.throttle6.msg_count.Control::0      4011190                      
system.ruby.network.routers8.throttle6.msg_count.Response_Data::1      1079400                      
system.ruby.network.routers8.throttle6.msg_count.Response_Control::2      3695434                      
system.ruby.network.routers8.throttle6.msg_count.Writeback_Data::0        45801                      
system.ruby.network.routers8.throttle6.msg_count.Writeback_Control::0          608                      
system.ruby.network.routers8.throttle6.msg_bytes.Control::0     32089520                      
system.ruby.network.routers8.throttle6.msg_bytes.Response_Data::1     77716800                      
system.ruby.network.routers8.throttle6.msg_bytes.Response_Control::2     29563472                      
system.ruby.network.routers8.throttle6.msg_bytes.Writeback_Data::0      3297672                      
system.ruby.network.routers8.throttle6.msg_bytes.Writeback_Control::0         4864                      
system.ruby.network.routers8.throttle7.link_utilization     0.007077                      
system.ruby.network.routers8.throttle7.msg_count.Control::0        38439                      
system.ruby.network.routers8.throttle7.msg_bytes.Control::0       307512                      
system.ruby.delayVCHist.vnet_0::bucket_size            8                       # delay histogram for vnet_0
system.ruby.delayVCHist.vnet_0::max_bucket           79                       # delay histogram for vnet_0
system.ruby.delayVCHist.vnet_0::samples       7753033                       # delay histogram for vnet_0
system.ruby.delayVCHist.vnet_0::mean         0.082167                       # delay histogram for vnet_0
system.ruby.delayVCHist.vnet_0::stdev        0.908286                       # delay histogram for vnet_0
system.ruby.delayVCHist.vnet_0           |     7699283     99.31%     99.31% |       44812      0.58%     99.88% |        8912      0.11%    100.00% |          25      0.00%    100.00% |           0      0.00%    100.00% |           1      0.00%    100.00% |           0      0.00%    100.00% |           0      0.00%    100.00% |           0      0.00%    100.00% |           0      0.00%    100.00% # delay histogram for vnet_0
system.ruby.delayVCHist.vnet_0::total         7753033                       # delay histogram for vnet_0
system.ruby.delayVCHist.vnet_1::bucket_size            4                       # delay histogram for vnet_1
system.ruby.delayVCHist.vnet_1::max_bucket           39                       # delay histogram for vnet_1
system.ruby.delayVCHist.vnet_1::samples      10817172                       # delay histogram for vnet_1
system.ruby.delayVCHist.vnet_1::mean         0.772056                       # delay histogram for vnet_1
system.ruby.delayVCHist.vnet_1::stdev        2.362056                       # delay histogram for vnet_1
[...]
system.ruby.L0Cache_Controller.M.Store::total     24257362                      
system.ruby.L0Cache_Controller.M.Inv     |          29      0.00%      0.00% |     1302963     50.00%     50.00% |     1302800     50.00%    100.00%
system.ruby.L0Cache_Controller.M.Inv::total      2605792                      
system.ruby.L0Cache_Controller.M.L0_Replacement |         104      0.22%      0.22% |       25436     54.35%     54.58% |       21257     45.42%    100.00%
system.ruby.L0Cache_Controller.M.L0_Replacement::total        46797                      
system.ruby.L0Cache_Controller.IS.Data   |          85      0.01%      0.01% |      726028     51.05%     51.06% |      695967     48.94%    100.00%
system.ruby.L0Cache_Controller.IS.Data::total      1422080                      
system.ruby.L0Cache_Controller.IS.Data_Exclusive |        1769      0.31%      0.31% |      307278     54.39%     54.71% |      255870     45.29%    100.00%
system.ruby.L0Cache_Controller.IS.Data_Exclusive::total       564917                      
system.ruby.L0Cache_Controller.IM.Data_Exclusive |         305      0.02%      0.02% |      807795     50.12%     50.14% |      803619     49.86%    100.00%
system.ruby.L0Cache_Controller.IM.Data_Exclusive::total      1611719                      
system.ruby.L0Cache_Controller.SM.Data_Exclusive |          14      0.00%      0.00% |      520343     50.00%     50.00% |      520364     50.00%    100.00%
system.ruby.L0Cache_Controller.SM.Data_Exclusive::total      1040721                      
system.ruby.L1Cache_Controller.Load      |        1854      0.09%      0.09% |     1033306     52.00%     52.10% |      951837     47.90%    100.00%
system.ruby.L1Cache_Controller.Load::total      1986997                      
system.ruby.L1Cache_Controller.Store     |         319      0.01%      0.01% |     1328138     50.07%     50.08% |     1323983     49.92%    100.00%
system.ruby.L1Cache_Controller.Store::total      2652440                      
system.ruby.L1Cache_Controller.WriteBack |        1187      0.19%      0.19% |      331632     54.44%     54.63% |      276404     45.37%    100.00%
system.ruby.L1Cache_Controller.WriteBack::total       609223                      
system.ruby.L1Cache_Controller.L0_DataAck |          29      0.00%      0.00% |     1302963     50.00%     50.00% |     1302800     50.00%    100.00%
system.ruby.L1Cache_Controller.L0_DataAck::total      2605792                      
system.ruby.L1Cache_Controller.Inv       |          10      0.00%      0.00% |      520374     50.00%     50.00% |      520352     50.00%    100.00%
system.ruby.L1Cache_Controller.Inv::total      1040736                      
system.ruby.L1Cache_Controller.L0_Invalidate_Own |           0      0.00%      0.00% |      338850     54.66%     54.66% |      281078     45.34%    100.00%
system.ruby.L1Cache_Controller.L0_Invalidate_Own::total       619928                      
system.ruby.L1Cache_Controller.L0_Invalidate_Else |         146      0.00%      0.00% |     2655826     50.00%     50.00% |     2655504     50.00%    100.00%
system.ruby.L1Cache_Controller.L0_Invalidate_Else::total      5311476                      
system.ruby.L1Cache_Controller.L1_Replacement |           0      0.00%      0.00% |      193750     54.64%     54.64% |      160835     45.36%    100.00%
system.ruby.L1Cache_Controller.L1_Replacement::total       354585                      
system.ruby.L1Cache_Controller.Fwd_GETX  |           4      0.00%      0.00% |      782696     50.00%     50.00% |      782681     50.00%    100.00%
system.ruby.L1Cache_Controller.Fwd_GETX::total      1565381                      
system.ruby.L1Cache_Controller.Fwd_GETS  |          79      0.01%      0.01% |      520493     50.00%     50.01% |      520389     49.99%    100.00%
system.ruby.L1Cache_Controller.Fwd_GETS::total      1040961                      
system.ruby.L1Cache_Controller.Data      |           1     33.33%     33.33% |           1     33.33%     66.67% |           1     33.33%    100.00%
system.ruby.L1Cache_Controller.Data::total            3                      
system.ruby.L1Cache_Controller.Data_Exclusive |        1328     37.59%     37.59% |        1244     35.21%     72.80% |         961     27.20%    100.00%
system.ruby.L1Cache_Controller.Data_Exclusive::total         3533                      
system.ruby.L1Cache_Controller.DataS_fromL1 |           8      0.00%      0.00% |      520430     50.00%     50.00% |      520523     50.00%    100.00%
system.ruby.L1Cache_Controller.DataS_fromL1::total      1040961                      
system.ruby.L1Cache_Controller.Data_all_Acks |         321      0.02%      0.02% |      979202     50.84%     50.86% |      946451     49.14%    100.00%
system.ruby.L1Cache_Controller.Data_all_Acks::total      1925974                      
system.ruby.L1Cache_Controller.L0_Ack    |          44      0.01%      0.01% |      194375     54.01%     54.02% |      165491     45.98%    100.00%
system.ruby.L1Cache_Controller.L0_Ack::total       359910                      
system.ruby.L1Cache_Controller.Ack       |          26      0.00%      0.00% |      520345     50.00%     50.00% |      520362     50.00%    100.00%
system.ruby.L1Cache_Controller.Ack::total      1040733                      
system.ruby.L1Cache_Controller.Ack_all   |          15      0.00%      0.00% |      520344     50.00%     50.00% |      520363     50.00%    100.00%
system.ruby.L1Cache_Controller.Ack_all::total      1040722                      
system.ruby.L1Cache_Controller.WB_Ack    |           0      0.00%      0.00% |       25295     54.50%     54.50% |       21114     45.50%    100.00%
system.ruby.L1Cache_Controller.WB_Ack::total        46409                      
system.ruby.L1Cache_Controller.NP.Load   |        1355      0.10%      0.10% |      693893     51.01%     51.11% |      664990     48.89%    100.00%
system.ruby.L1Cache_Controller.NP.Load::total      1360238                      
system.ruby.L1Cache_Controller.NP.Store  |         300      0.67%      0.67% |       24309     54.17%     54.83% |       20270     45.17%    100.00%
system.ruby.L1Cache_Controller.NP.Store::total        44879                      
system.ruby.L1Cache_Controller.NP.Inv    |           0      0.00%      0.00% |           8     42.11%     42.11% |          11     57.89%    100.00%
system.ruby.L1Cache_Controller.NP.Inv::total           19                      
system.ruby.L1Cache_Controller.I.Load    |           3     25.00%     25.00% |           4     33.33%     58.33% |           5     41.67%    100.00%
system.ruby.L1Cache_Controller.I.Load::total           12                      
system.ruby.L1Cache_Controller.I.Store   |           0      0.00%      0.00% |      782671     50.00%     50.00% |      782669     50.00%    100.00%
system.ruby.L1Cache_Controller.I.Store::total      1565340                      
system.ruby.L1Cache_Controller.I.L1_Replacement |           0      0.00%      0.00% |          21     84.00%     84.00% |           4     16.00%    100.00%
system.ruby.L1Cache_Controller.I.L1_Replacement::total           25                      
system.ruby.L1Cache_Controller.S.Load    |           3      0.02%      0.02% |        8058     54.52%     54.54% |        6718     45.46%    100.00%
system.ruby.L1Cache_Controller.S.Load::total        14779                      
system.ruby.L1Cache_Controller.S.Store   |          14      0.00%      0.00% |      520343     50.00%     50.00% |      520364     50.00%    100.00%
system.ruby.L1Cache_Controller.S.Store::total      1040721                      
system.ruby.L1Cache_Controller.S.L0_Invalidate_Own |           0      0.00%      0.00% |      168428     54.66%     54.66% |      139712     45.34%    100.00%
system.ruby.L1Cache_Controller.S.L0_Invalidate_Own::total       308140                      
system.ruby.L1Cache_Controller.S.L0_Invalidate_Else |           1      0.00%      0.00% |       25199     50.00%     50.00% |       25201     50.00%    100.00%
system.ruby.L1Cache_Controller.S.L0_Invalidate_Else::total        50401                      
system.ruby.L1Cache_Controller.SS.Load   |          52      0.10%      0.10% |       25317     50.05%     50.15% |       25215     49.85%    100.00%
system.ruby.L1Cache_Controller.SS.Load::total        50584                      
system.ruby.L1Cache_Controller.SS.Inv    |          10      0.00%      0.00% |      520366     50.00%     50.00% |      520339     50.00%    100.00%
system.ruby.L1Cache_Controller.SS.Inv::total      1040715                      
system.ruby.L1Cache_Controller.SS.L1_Replacement |           0      0.00%      0.00% |      168434     54.66%     54.66% |      139717     45.34%    100.00%
system.ruby.L1Cache_Controller.SS.L1_Replacement::total       308151                      
system.ruby.L1Cache_Controller.E.WriteBack |         772     52.66%     52.66% |         393     26.81%     79.47% |         301     20.53%    100.00%
system.ruby.L1Cache_Controller.E.WriteBack::total         1466                      
system.ruby.L1Cache_Controller.E.L0_Invalidate_Own |           0      0.00%      0.00% |         666     54.63%     54.63% |         553     45.37%    100.00%
system.ruby.L1Cache_Controller.E.L0_Invalidate_Own::total         1219                      
system.ruby.L1Cache_Controller.E.L0_Invalidate_Else |          32     13.22%     13.22% |         144     59.50%     72.73% |          66     27.27%    100.00%
system.ruby.L1Cache_Controller.E.L0_Invalidate_Else::total          242                      
system.ruby.L1Cache_Controller.EE.Load   |           0      0.00%      0.00% |           1    100.00%    100.00% |           0      0.00%    100.00%
system.ruby.L1Cache_Controller.EE.Load::total            1                      
system.ruby.L1Cache_Controller.EE.L1_Replacement |           0      0.00%      0.00% |         626     54.62%     54.62% |         520     45.38%    100.00%
system.ruby.L1Cache_Controller.EE.L1_Replacement::total         1146                      
system.ruby.L1Cache_Controller.EE.Fwd_GETS |          26     12.68%     12.68% |         121     59.02%     71.71% |          58     28.29%    100.00%
system.ruby.L1Cache_Controller.EE.Fwd_GETS::total          205                      
system.ruby.L1Cache_Controller.M.WriteBack |         415      0.07%      0.07% |      331239     54.50%     54.57% |      276103     45.43%    100.00%
system.ruby.L1Cache_Controller.M.WriteBack::total       607757                      
system.ruby.L1Cache_Controller.M.L0_Invalidate_Own |           0      0.00%      0.00% |         331     54.71%     54.71% |         274     45.29%    100.00%
system.ruby.L1Cache_Controller.M.L0_Invalidate_Own::total          605                      
system.ruby.L1Cache_Controller.M.L0_Invalidate_Else |          40      0.00%      0.00% |     1302570     50.00%     50.00% |     1302485     50.00%    100.00%
system.ruby.L1Cache_Controller.M.L0_Invalidate_Else::total      2605095                      
system.ruby.L1Cache_Controller.MM.Load   |         441      0.08%      0.08% |      306033     54.51%     54.59% |      254909     45.41%    100.00%
system.ruby.L1Cache_Controller.MM.Load::total       561383                      
system.ruby.L1Cache_Controller.MM.Store  |           5      0.33%      0.33% |         815     54.33%     54.67% |         680     45.33%    100.00%
system.ruby.L1Cache_Controller.MM.Store::total         1500                      
system.ruby.L1Cache_Controller.MM.L1_Replacement |           0      0.00%      0.00% |       24669     54.50%     54.50% |       20594     45.50%    100.00%
system.ruby.L1Cache_Controller.MM.L1_Replacement::total        45263                      
system.ruby.L1Cache_Controller.MM.Fwd_GETX |           4      0.00%      0.00% |      782696     50.00%     50.00% |      782681     50.00%    100.00%
system.ruby.L1Cache_Controller.MM.Fwd_GETX::total      1565381                      
system.ruby.L1Cache_Controller.MM.Fwd_GETS |          53      0.01%      0.01% |      520372     50.00%     50.00% |      520331     50.00%    100.00%
system.ruby.L1Cache_Controller.MM.Fwd_GETS::total      1040756                      
system.ruby.L1Cache_Controller.IS.Data_Exclusive |        1328     37.59%     37.59% |        1244     35.21%     72.80% |         961     27.20%    100.00%
system.ruby.L1Cache_Controller.IS.Data_Exclusive::total         3533                      
system.ruby.L1Cache_Controller.IS.DataS_fromL1 |           8      0.00%      0.00% |      520430     50.00%     50.00% |      520523     50.00%    100.00%
system.ruby.L1Cache_Controller.IS.DataS_fromL1::total      1040961                      
system.ruby.L1Cache_Controller.IS.Data_all_Acks |          22      0.01%      0.01% |      172223     54.54%     54.55% |      143511     45.45%    100.00%
system.ruby.L1Cache_Controller.IS.Data_all_Acks::total       315756                      
system.ruby.L1Cache_Controller.IM.Data   |           1     33.33%     33.33% |           1     33.33%     66.67% |           1     33.33%    100.00%
system.ruby.L1Cache_Controller.IM.Data::total            3                      
system.ruby.L1Cache_Controller.IM.Data_all_Acks |         299      0.02%      0.02% |      806979     50.12%     50.13% |      802940     49.87%    100.00%
system.ruby.L1Cache_Controller.IM.Data_all_Acks::total      1610218                      
system.ruby.L1Cache_Controller.SM.Inv    |           0      0.00%      0.00% |           0      0.00%      0.00% |           2    100.00%    100.00%
system.ruby.L1Cache_Controller.SM.Inv::total            2                      
system.ruby.L1Cache_Controller.SM.Ack    |          26      0.00%      0.00% |      520345     50.00%     50.00% |      520362     50.00%    100.00%
system.ruby.L1Cache_Controller.SM.Ack::total      1040733                      
system.ruby.L1Cache_Controller.SM.Ack_all |          15      0.00%      0.00% |      520344     50.00%     50.00% |      520363     50.00%    100.00%
system.ruby.L1Cache_Controller.SM.Ack_all::total      1040722                      
system.ruby.L1Cache_Controller.M_I.WB_Ack |           0      0.00%      0.00% |       25295     54.50%     54.50% |       21114     45.50%    100.00%
system.ruby.L1Cache_Controller.M_I.WB_Ack::total        46409                      
system.ruby.L1Cache_Controller.S_IL0.L0_Invalidate_Own |           0      0.00%      0.00% |      168428     54.66%     54.66% |      139712     45.34%    100.00%
system.ruby.L1Cache_Controller.S_IL0.L0_Invalidate_Own::total       308140                      
system.ruby.L1Cache_Controller.S_IL0.L0_Invalidate_Else |           1      0.00%      0.00% |       25199     50.00%     50.00% |       25201     50.00%    100.00%
system.ruby.L1Cache_Controller.S_IL0.L0_Invalidate_Else::total        50401                      
system.ruby.L1Cache_Controller.S_IL0.L0_Ack |           1      0.00%      0.00% |      193627     54.00%     54.00% |      164913     46.00%    100.00%
system.ruby.L1Cache_Controller.S_IL0.L0_Ack::total       358541                      
system.ruby.L1Cache_Controller.E_IL0.L0_DataAck |           6      5.50%      5.50% |          62     56.88%     62.39% |          41     37.61%    100.00%
system.ruby.L1Cache_Controller.E_IL0.L0_DataAck::total          109                      
system.ruby.L1Cache_Controller.E_IL0.L0_Invalidate_Own |           0      0.00%      0.00% |         666     54.63%     54.63% |         553     45.37%    100.00%
system.ruby.L1Cache_Controller.E_IL0.L0_Invalidate_Own::total         1219                      
system.ruby.L1Cache_Controller.E_IL0.L0_Invalidate_Else |          32     13.22%     13.22% |         144     59.50%     72.73% |          66     27.27%    100.00%
system.ruby.L1Cache_Controller.E_IL0.L0_Invalidate_Else::total          242                      
system.ruby.L1Cache_Controller.E_IL0.L0_Ack |          26      1.92%      1.92% |         748     55.33%     57.25% |         578     42.75%    100.00%
system.ruby.L1Cache_Controller.E_IL0.L0_Ack::total         1352                      
system.ruby.L1Cache_Controller.M_IL0.L0_DataAck |          23      0.00%      0.00% |     1302901     50.00%     50.00% |     1302759     50.00%    100.00%
system.ruby.L1Cache_Controller.M_IL0.L0_DataAck::total      2605683                      
system.ruby.L1Cache_Controller.M_IL0.L0_Invalidate_Own |           0      0.00%      0.00% |         331     54.71%     54.71% |         274     45.29%    100.00%
system.ruby.L1Cache_Controller.M_IL0.L0_Invalidate_Own::total          605                      
system.ruby.L1Cache_Controller.M_IL0.L0_Invalidate_Else |          40      0.00%      0.00% |     1302570     50.00%     50.00% |     1302485     50.00%    100.00%
system.ruby.L1Cache_Controller.M_IL0.L0_Invalidate_Else::total      2605095                      
system.ruby.L1Cache_Controller.M_IL0.L0_Ack |          17    100.00%    100.00% |           0      0.00%    100.00% |           0      0.00%    100.00%
system.ruby.L1Cache_Controller.M_IL0.L0_Ack::total           17                      
system.ruby.L2Cache_Controller.L1_GETS        1360351      0.00%      0.00%
system.ruby.L2Cache_Controller.L1_GETX        1613950      0.00%      0.00%
system.ruby.L2Cache_Controller.L1_UPGRADE      1040721      0.00%      0.00%
system.ruby.L2Cache_Controller.L1_PUTX          46409      0.00%      0.00%
system.ruby.L2Cache_Controller.Mem_Data         38439      0.00%      0.00%
system.ruby.L2Cache_Controller.WB_Data        1040950      0.00%      0.00%
system.ruby.L2Cache_Controller.WB_Data_clean           11      0.00%      0.00%
system.ruby.L2Cache_Controller.Unblock        1040961      0.00%      0.00%
system.ruby.L2Cache_Controller.Exclusive_Unblock      2654473      0.00%      0.00%
system.ruby.L2Cache_Controller.NP.L1_GETS        29986      0.00%      0.00%
system.ruby.L2Cache_Controller.NP.L1_GETX         8453      0.00%      0.00%
system.ruby.L2Cache_Controller.SS.L1_GETS       258798      0.00%      0.00%
system.ruby.L2Cache_Controller.SS.L1_GETX            3      0.00%      0.00%
system.ruby.L2Cache_Controller.SS.L1_UPGRADE      1040719      0.00%      0.00%
system.ruby.L2Cache_Controller.M.L1_GETS         2026      0.00%      0.00%
system.ruby.L2Cache_Controller.M.L1_GETX        36384      0.00%      0.00%
system.ruby.L2Cache_Controller.MT.L1_GETS      1040961      0.00%      0.00%
system.ruby.L2Cache_Controller.MT.L1_GETX      1565381      0.00%      0.00%
system.ruby.L2Cache_Controller.MT.L1_PUTX        46409      0.00%      0.00%
system.ruby.L2Cache_Controller.ISS.L1_GETS        28479      0.00%      0.00%
system.ruby.L2Cache_Controller.ISS.Mem_Data         1507      0.00%      0.00%
system.ruby.L2Cache_Controller.IS.Mem_Data        28479      0.00%      0.00%
system.ruby.L2Cache_Controller.IM.Mem_Data         8453      0.00%      0.00%
system.ruby.L2Cache_Controller.SS_MB.L1_GETS            1      0.00%      0.00%
system.ruby.L2Cache_Controller.SS_MB.L1_UPGRADE            2      0.00%      0.00%
system.ruby.L2Cache_Controller.SS_MB.Exclusive_Unblock      1040722      0.00%      0.00%
system.ruby.L2Cache_Controller.MT_MB.L1_GETS           89      0.00%      0.00%
system.ruby.L2Cache_Controller.MT_MB.L1_GETX         3729      0.00%      0.00%
system.ruby.L2Cache_Controller.MT_MB.Exclusive_Unblock      1613751      0.00%      0.00%
system.ruby.L2Cache_Controller.MT_IIB.L1_GETS           11      0.00%      0.00%
system.ruby.L2Cache_Controller.MT_IIB.WB_Data      1040936      0.00%      0.00%
system.ruby.L2Cache_Controller.MT_IIB.WB_Data_clean           11      0.00%      0.00%
system.ruby.L2Cache_Controller.MT_IIB.Unblock           14      0.00%      0.00%
system.ruby.L2Cache_Controller.MT_IB.WB_Data           14      0.00%      0.00%
system.ruby.L2Cache_Controller.MT_SB.Unblock      1040947      0.00%      0.00%

---------- End Simulation Statistics   ----------
