
---------- Begin Simulation Statistics ----------
sim_seconds                                  0.156022                       # Number of seconds simulated
sim_ticks                                156022052500                       # Number of ticks simulated
final_tick                               156022052500                       # Number of ticks from beginning of simulation (restored from checkpoints and never reset)
sim_freq                                 1000000000000                       # Frequency of simulated ticks
host_inst_rate                                 152684                       # Simulator instruction rate (inst/s)
host_op_rate                                   361092                       # Simulator op (including micro ops) rate (op/s)
host_tick_rate                              222350883                       # Simulator tick rate (ticks/s)
host_mem_usage                                 780664                       # Number of bytes of host memory used
host_seconds                                   701.69                       # Real time elapsed on the host
sim_insts                                   107137012                       # Number of instructions simulated
sim_ops                                     253375976                       # Number of ops (including micro ops) simulated
system.voltage_domain.voltage                       1                       # Voltage in Volts
system.clk_domain.clock                          1000                       # Clock period in ticks
system.mem_ctrls.bytes_read::ruby.dir_cntrl0      4285568                       # Number of bytes read from this memory
system.mem_ctrls.bytes_read::total            4285568                       # Number of bytes read from this memory
system.mem_ctrls.num_reads::ruby.dir_cntrl0        66962                       # Number of read requests responded to by this memory
system.mem_ctrls.num_reads::total               66962                       # Number of read requests responded to by this memory
system.mem_ctrls.bw_read::ruby.dir_cntrl0     27467707                       # Total read bandwidth from this memory (bytes/s)
system.mem_ctrls.bw_read::total              27467707                       # Total read bandwidth from this memory (bytes/s)
system.mem_ctrls.bw_total::ruby.dir_cntrl0     27467707                       # Total bandwidth to/from this memory (bytes/s)
system.mem_ctrls.bw_total::total             27467707                       # Total bandwidth to/from this memory (bytes/s)
system.mem_ctrls.readReqs                       66962                       # Number of read requests accepted
system.mem_ctrls.writeReqs                          0                       # Number of write requests accepted
system.mem_ctrls.readBursts                     66962                       # Number of DRAM read bursts, including those serviced by the write queue
system.mem_ctrls.writeBursts                        0                       # Number of DRAM write bursts, including those merged in the write queue
system.mem_ctrls.bytesReadDRAM                4285568                       # Total number of bytes read from DRAM
system.mem_ctrls.bytesReadWrQ                       0                       # Total number of bytes read from write queue
system.mem_ctrls.bytesWritten                       0                       # Total number of bytes written to DRAM
system.mem_ctrls.bytesReadSys                 4285568                       # Total read bytes from the system interface side
system.mem_ctrls.bytesWrittenSys                    0                       # Total written bytes from the system interface side
system.mem_ctrls.servicedByWrQ                      0                       # Number of DRAM read bursts serviced by the write queue
system.mem_ctrls.mergedWrBursts                     0                       # Number of DRAM write bursts merged with an existing one
system.mem_ctrls.neitherReadNorWriteReqs            0                       # Number of requests that are neither read nor write
system.mem_ctrls.perBankRdBursts::0              4182                       # Per bank write bursts
system.mem_ctrls.perBankRdBursts::1              4221                       # Per bank write bursts
system.mem_ctrls.perBankRdBursts::2              4120                       # Per bank write bursts
system.mem_ctrls.perBankRdBursts::3              3969                       # Per bank write bursts
system.mem_ctrls.perBankRdBursts::4              4088                       # Per bank write bursts
system.mem_ctrls.perBankRdBursts::5              4089                       # Per bank write bursts
system.mem_ctrls.perBankRdBursts::6              4187                       # Per bank write bursts
system.mem_ctrls.perBankRdBursts::7              4243                       # Per bank write bursts
system.mem_ctrls.perBankRdBursts::8              4138                       # Per bank write bursts
system.mem_ctrls.perBankRdBursts::9              4262                       # Per bank write bursts
system.mem_ctrls.perBankRdBursts::10             4329                       # Per bank write bursts
system.mem_ctrls.perBankRdBursts::11             4370                       # Per bank write bursts
system.mem_ctrls.perBankRdBursts::12             4305                       # Per bank write bursts
system.mem_ctrls.perBankRdBursts::13             4179                       # Per bank write bursts
system.mem_ctrls.perBankRdBursts::14             4139                       # Per bank write bursts
system.mem_ctrls.perBankRdBursts::15             4141                       # Per bank write bursts
system.mem_ctrls.perBankWrBursts::0                 0                       # Per bank write bursts
system.mem_ctrls.perBankWrBursts::1                 0                       # Per bank write bursts
system.mem_ctrls.perBankWrBursts::2                 0                       # Per bank write bursts
system.mem_ctrls.perBankWrBursts::3                 0                       # Per bank write bursts
system.mem_ctrls.perBankWrBursts::4                 0                       # Per bank write bursts
system.mem_ctrls.perBankWrBursts::5                 0                       # Per bank write bursts
system.mem_ctrls.perBankWrBursts::6                 0                       # Per bank write bursts
system.mem_ctrls.perBankWrBursts::7                 0                       # Per bank write bursts
system.mem_ctrls.perBankWrBursts::8                 0                       # Per bank write bursts
system.mem_ctrls.perBankWrBursts::9                 0                       # Per bank write bursts
system.mem_ctrls.perBankWrBursts::10                0                       # Per bank write bursts
system.mem_ctrls.perBankWrBursts::11                0                       # Per bank write bursts
system.mem_ctrls.perBankWrBursts::12                0                       # Per bank write bursts
system.mem_ctrls.perBankWrBursts::13                0                       # Per bank write bursts
system.mem_ctrls.perBankWrBursts::14                0                       # Per bank write bursts
system.mem_ctrls.perBankWrBursts::15                0                       # Per bank write bursts
system.mem_ctrls.numRdRetry                         0                       # Number of times read queue was full causing retry
system.mem_ctrls.numWrRetry                         0                       # Number of times write queue was full causing retry
system.mem_ctrls.totGap                  156021991500                       # Total gap between requests
system.mem_ctrls.readPktSize::0                     0                       # Read request sizes (log2)
system.mem_ctrls.readPktSize::1                     0                       # Read request sizes (log2)
system.mem_ctrls.readPktSize::2                     0                       # Read request sizes (log2)
system.mem_ctrls.readPktSize::3                     0                       # Read request sizes (log2)
system.mem_ctrls.readPktSize::4                     0                       # Read request sizes (log2)
system.mem_ctrls.readPktSize::5                     0                       # Read request sizes (log2)
system.mem_ctrls.readPktSize::6                 66962                       # Read request sizes (log2)
system.mem_ctrls.writePktSize::0                    0                       # Write request sizes (log2)
system.mem_ctrls.writePktSize::1                    0                       # Write request sizes (log2)
system.mem_ctrls.writePktSize::2                    0                       # Write request sizes (log2)
system.mem_ctrls.writePktSize::3                    0                       # Write request sizes (log2)
system.mem_ctrls.writePktSize::4                    0                       # Write request sizes (log2)
system.mem_ctrls.writePktSize::5                    0                       # Write request sizes (log2)
system.mem_ctrls.writePktSize::6                    0                       # Write request sizes (log2)
system.mem_ctrls.rdQLenPdf::0                   66961                       # What read queue length does an incoming req see
system.mem_ctrls.rdQLenPdf::1                       1                       # What read queue length does an incoming req see
system.mem_ctrls.rdQLenPdf::2                       0                       # What read queue length does an incoming req see
system.mem_ctrls.rdQLenPdf::3                       0                       # What read queue length does an incoming req see
system.mem_ctrls.rdQLenPdf::4                       0                       # What read queue length does an incoming req see
system.mem_ctrls.rdQLenPdf::5                       0                       # What read queue length does an incoming req see
system.mem_ctrls.rdQLenPdf::6                       0                       # What read queue length does an incoming req see
system.mem_ctrls.rdQLenPdf::7                       0                       # What read queue length does an incoming req see
system.mem_ctrls.rdQLenPdf::8                       0                       # What read queue length does an incoming req see
system.mem_ctrls.rdQLenPdf::9                       0                       # What read queue length does an incoming req see
system.mem_ctrls.rdQLenPdf::10                      0                       # What read queue length does an incoming req see
system.mem_ctrls.rdQLenPdf::11                      0                       # What read queue length does an incoming req see
system.mem_ctrls.rdQLenPdf::12                      0                       # What read queue length does an incoming req see
system.mem_ctrls.rdQLenPdf::13                      0                       # What read queue length does an incoming req see
system.mem_ctrls.rdQLenPdf::14                      0                       # What read queue length does an incoming req see
system.mem_ctrls.rdQLenPdf::15                      0                       # What read queue length does an incoming req see
system.mem_ctrls.rdQLenPdf::16                      0                       # What read queue length does an incoming req see
system.mem_ctrls.rdQLenPdf::17                      0                       # What read queue length does an incoming req see
system.mem_ctrls.rdQLenPdf::18                      0                       # What read queue length does an incoming req see
system.mem_ctrls.rdQLenPdf::19                      0                       # What read queue length does an incoming req see
system.mem_ctrls.rdQLenPdf::20                      0                       # What read queue length does an incoming req see
system.mem_ctrls.rdQLenPdf::21                      0                       # What read queue length does an incoming req see
system.mem_ctrls.rdQLenPdf::22                      0                       # What read queue length does an incoming req see
system.mem_ctrls.rdQLenPdf::23                      0                       # What read queue length does an incoming req see
system.mem_ctrls.rdQLenPdf::24                      0                       # What read queue length does an incoming req see
system.mem_ctrls.rdQLenPdf::25                      0                       # What read queue length does an incoming req see
system.mem_ctrls.rdQLenPdf::26                      0                       # What read queue length does an incoming req see
system.mem_ctrls.rdQLenPdf::27                      0                       # What read queue length does an incoming req see
system.mem_ctrls.rdQLenPdf::28                      0                       # What read queue length does an incoming req see
system.mem_ctrls.rdQLenPdf::29                      0                       # What read queue length does an incoming req see
system.mem_ctrls.rdQLenPdf::30                      0                       # What read queue length does an incoming req see
system.mem_ctrls.rdQLenPdf::31                      0                       # What read queue length does an incoming req see
system.mem_ctrls.wrQLenPdf::0                       0                       # What write queue length does an incoming req see
system.mem_ctrls.wrQLenPdf::1                       0                       # What write queue length does an incoming req see
system.mem_ctrls.wrQLenPdf::2                       0                       # What write queue length does an incoming req see
system.mem_ctrls.wrQLenPdf::3                       0                       # What write queue length does an incoming req see
system.mem_ctrls.wrQLenPdf::4                       0                       # What write queue length does an incoming req see
system.mem_ctrls.wrQLenPdf::5                       0                       # What write queue length does an incoming req see
system.mem_ctrls.wrQLenPdf::6                       0                       # What write queue length does an incoming req see
system.mem_ctrls.wrQLenPdf::7                       0                       # What write queue length does an incoming req see
system.mem_ctrls.wrQLenPdf::8                       0                       # What write queue length does an incoming req see
system.mem_ctrls.wrQLenPdf::9                       0                       # What write queue length does an incoming req see
system.mem_ctrls.wrQLenPdf::10                      0                       # What write queue length does an incoming req see
system.mem_ctrls.wrQLenPdf::11                      0                       # What write queue length does an incoming req see
system.mem_ctrls.wrQLenPdf::12                      0                       # What write queue length does an incoming req see
system.mem_ctrls.wrQLenPdf::13                      0                       # What write queue length does an incoming req see
system.mem_ctrls.wrQLenPdf::14                      0                       # What write queue length does an incoming req see
system.mem_ctrls.wrQLenPdf::15                      0                       # What write queue length does an incoming req see
system.mem_ctrls.wrQLenPdf::16                      0                       # What write queue length does an incoming req see
system.mem_ctrls.wrQLenPdf::17                      0                       # What write queue length does an incoming req see
system.mem_ctrls.wrQLenPdf::18                      0                       # What write queue length does an incoming req see
system.mem_ctrls.wrQLenPdf::19                      0                       # What write queue length does an incoming req see
system.mem_ctrls.wrQLenPdf::20                      0                       # What write queue length does an incoming req see
system.mem_ctrls.wrQLenPdf::21                      0                       # What write queue length does an incoming req see
system.mem_ctrls.wrQLenPdf::22                      0                       # What write queue length does an incoming req see
system.mem_ctrls.wrQLenPdf::23                      0                       # What write queue length does an incoming req see
system.mem_ctrls.wrQLenPdf::24                      0                       # What write queue length does an incoming req see
system.mem_ctrls.wrQLenPdf::25                      0                       # What write queue length does an incoming req see
system.mem_ctrls.wrQLenPdf::26                      0                       # What write queue length does an incoming req see
system.mem_ctrls.wrQLenPdf::27                      0                       # What write queue length does an incoming req see
system.mem_ctrls.wrQLenPdf::28                      0                       # What write queue length does an incoming req see
system.mem_ctrls.wrQLenPdf::29                      0                       # What write queue length does an incoming req see
system.mem_ctrls.wrQLenPdf::30                      0                       # What write queue length does an incoming req see
system.mem_ctrls.wrQLenPdf::31                      0                       # What write queue length does an incoming req see
system.mem_ctrls.wrQLenPdf::32                      0                       # What write queue length does an incoming req see
system.mem_ctrls.wrQLenPdf::33                      0                       # What write queue length does an incoming req see
system.mem_ctrls.wrQLenPdf::34                      0                       # What write queue length does an incoming req see
system.mem_ctrls.wrQLenPdf::35                      0                       # What write queue length does an incoming req see
system.mem_ctrls.wrQLenPdf::36                      0                       # What write queue length does an incoming req see
system.mem_ctrls.wrQLenPdf::37                      0                       # What write queue length does an incoming req see
system.mem_ctrls.wrQLenPdf::38                      0                       # What write queue length does an incoming req see
system.mem_ctrls.wrQLenPdf::39                      0                       # What write queue length does an incoming req see
system.mem_ctrls.wrQLenPdf::40                      0                       # What write queue length does an incoming req see
system.mem_ctrls.wrQLenPdf::41                      0                       # What write queue length does an incoming req see
system.mem_ctrls.wrQLenPdf::42                      0                       # What write queue length does an incoming req see
system.mem_ctrls.wrQLenPdf::43                      0                       # What write queue length does an incoming req see
system.mem_ctrls.wrQLenPdf::44                      0                       # What write queue length does an incoming req see
system.mem_ctrls.wrQLenPdf::45                      0                       # What write queue length does an incoming req see
system.mem_ctrls.wrQLenPdf::46                      0                       # What write queue length does an incoming req see
system.mem_ctrls.wrQLenPdf::47                      0                       # What write queue length does an incoming req see
system.mem_ctrls.wrQLenPdf::48                      0                       # What write queue length does an incoming req see
system.mem_ctrls.wrQLenPdf::49                      0                       # What write queue length does an incoming req see
system.mem_ctrls.wrQLenPdf::50                      0                       # What write queue length does an incoming req see
system.mem_ctrls.wrQLenPdf::51                      0                       # What write queue length does an incoming req see
system.mem_ctrls.wrQLenPdf::52                      0                       # What write queue length does an incoming req see
system.mem_ctrls.wrQLenPdf::53                      0                       # What write queue length does an incoming req see
system.mem_ctrls.wrQLenPdf::54                      0                       # What write queue length does an incoming req see
system.mem_ctrls.wrQLenPdf::55                      0                       # What write queue length does an incoming req see
system.mem_ctrls.wrQLenPdf::56                      0                       # What write queue length does an incoming req see
system.mem_ctrls.wrQLenPdf::57                      0                       # What write queue length does an incoming req see
system.mem_ctrls.wrQLenPdf::58                      0                       # What write queue length does an incoming req see
system.mem_ctrls.wrQLenPdf::59                      0                       # What write queue length does an incoming req see
system.mem_ctrls.wrQLenPdf::60                      0                       # What write queue length does an incoming req see
system.mem_ctrls.wrQLenPdf::61                      0                       # What write queue length does an incoming req see
system.mem_ctrls.wrQLenPdf::62                      0                       # What write queue length does an incoming req see
system.mem_ctrls.wrQLenPdf::63                      0                       # What write queue length does an incoming req see
system.mem_ctrls.bytesPerActivate::samples        15905                       # Bytes accessed per row activation
system.mem_ctrls.bytesPerActivate::mean    269.403584                       # Bytes accessed per row activation
system.mem_ctrls.bytesPerActivate::gmean   253.632923                       # Bytes accessed per row activation
system.mem_ctrls.bytesPerActivate::stdev   108.169490                       # Bytes accessed per row activation
system.mem_ctrls.bytesPerActivate::0-127          627      3.94%      3.94% # Bytes accessed per row activation
system.mem_ctrls.bytesPerActivate::128-255          692      4.35%      8.29% # Bytes accessed per row activation
system.mem_ctrls.bytesPerActivate::256-383        14112     88.73%     97.02% # Bytes accessed per row activation
system.mem_ctrls.bytesPerActivate::384-511          151      0.95%     97.97% # Bytes accessed per row activation
system.mem_ctrls.bytesPerActivate::512-639           54      0.34%     98.31% # Bytes accessed per row activation
system.mem_ctrls.bytesPerActivate::640-767           13      0.08%     98.39% # Bytes accessed per row activation
system.mem_ctrls.bytesPerActivate::768-895           22      0.14%     98.53% # Bytes accessed per row activation
system.mem_ctrls.bytesPerActivate::896-1023           47      0.30%     98.82% # Bytes accessed per row activation
system.mem_ctrls.bytesPerActivate::1024-1151          187      1.18%    100.00% # Bytes accessed per row activation
system.mem_ctrls.bytesPerActivate::total        15905                       # Bytes accessed per row activation
system.mem_ctrls.totQLat                    680444749                       # Total ticks spent queuing
system.mem_ctrls.totMemAccLat              1935982249                       # Total ticks spent from burst creation until serviced by the DRAM
system.mem_ctrls.totBusLat                  334810000                       # Total ticks spent in databus transfers
system.mem_ctrls.avgQLat                     10161.66                       # Average queueing delay per DRAM burst
system.mem_ctrls.avgBusLat                    5000.00                       # Average bus latency per DRAM burst
system.mem_ctrls.avgMemAccLat                28911.66                       # Average memory access latency per DRAM burst
system.mem_ctrls.avgRdBW                        27.47                       # Average DRAM read bandwidth in MiByte/s
system.mem_ctrls.avgWrBW                         0.00                       # Average achieved write bandwidth in MiByte/s
system.mem_ctrls.avgRdBWSys                     27.47                       # Average system read bandwidth in MiByte/s
system.mem_ctrls.avgWrBWSys                      0.00                       # Average system write bandwidth in MiByte/s
system.mem_ctrls.peakBW                      12800.00                       # Theoretical peak bandwidth in MiByte/s
system.mem_ctrls.busUtil                         0.21                       # Data bus utilization in percentage
system.mem_ctrls.busUtilRead                     0.21                       # Data bus utilization in percentage for reads
system.mem_ctrls.busUtilWrite                    0.00                       # Data bus utilization in percentage for writes
system.mem_ctrls.avgRdQLen                       1.00                       # Average read queue length when enqueuing
system.mem_ctrls.avgWrQLen                       0.00                       # Average write queue length when enqueuing
system.mem_ctrls.readRowHits                    51053                       # Number of row buffer hits during reads
system.mem_ctrls.writeRowHits                       0                       # Number of row buffer hits during writes
system.mem_ctrls.readRowHitRate                 76.24                       # Row buffer hit rate for reads
system.mem_ctrls.writeRowHitRate                  nan                       # Row buffer hit rate for writes
system.mem_ctrls.avgGap                    2330007.94                       # Average gap between requests
system.mem_ctrls.pageHitRate                    76.24                       # Row buffer hit rate, read and write combined
system.mem_ctrls_0.actEnergy                 60109560                       # Energy for activate commands per rank (pJ)
system.mem_ctrls_0.preEnergy                 32797875                       # Energy for precharge commands per rank (pJ)
system.mem_ctrls_0.readEnergy               258164400                       # Energy for read commands per rank (pJ)
system.mem_ctrls_0.writeEnergy                      0                       # Energy for write commands per rank (pJ)
system.mem_ctrls_0.refreshEnergy          10190525280                       # Energy for refresh commands per rank (pJ)
system.mem_ctrls_0.actBackEnergy          37535798745                       # Energy for active background per rank (pJ)
system.mem_ctrls_0.preBackEnergy          60686543250                       # Energy for precharge background per rank (pJ)
system.mem_ctrls_0.totalEnergy           108763939110                       # Total energy per rank (pJ)
system.mem_ctrls_0.averagePower            697.110282                       # Core power per rank (mW)
system.mem_ctrls_0.memoryStateTime::IDLE 100763182750                       # Time in different power states
system.mem_ctrls_0.memoryStateTime::REF    5209880000                       # Time in different power states
system.mem_ctrls_0.memoryStateTime::PRE_PDN            0                       # Time in different power states
system.mem_ctrls_0.memoryStateTime::ACT   50048753750                       # Time in different power states
system.mem_ctrls_0.memoryStateTime::ACT_PDN            0                       # Time in different power states
system.mem_ctrls_1.actEnergy                 60132240                       # Energy for activate commands per rank (pJ)
system.mem_ctrls_1.preEnergy                 32810250                       # Energy for precharge commands per rank (pJ)
system.mem_ctrls_1.readEnergy               264053400                       # Energy for read commands per rank (pJ)
system.mem_ctrls_1.writeEnergy                      0                       # Energy for write commands per rank (pJ)
system.mem_ctrls_1.refreshEnergy          10190525280                       # Energy for refresh commands per rank (pJ)
system.mem_ctrls_1.actBackEnergy          38450038275                       # Energy for active background per rank (pJ)
system.mem_ctrls_1.preBackEnergy          59884578750                       # Energy for precharge background per rank (pJ)
system.mem_ctrls_1.totalEnergy           108882138195                       # Total energy per rank (pJ)
system.mem_ctrls_1.averagePower            697.867865                       # Core power per rank (mW)
system.mem_ctrls_1.memoryStateTime::IDLE  99423482250                       # Time in different power states
system.mem_ctrls_1.memoryStateTime::REF    5209880000                       # Time in different power states
system.mem_ctrls_1.memoryStateTime::PRE_PDN            0                       # Time in different power states
system.mem_ctrls_1.memoryStateTime::ACT   51387789000                       # Time in different power states
system.mem_ctrls_1.memoryStateTime::ACT_PDN            0                       # Time in different power states
system.cpu_voltage_domain.voltage                   1                       # Voltage in Volts
system.cpu_clk_domain.clock                       500                       # Clock period in ticks
system.cpu0.apic_clk_domain.clock                8000                       # Clock period in ticks
system.cpu0.workload.num_syscalls                 157                       # Number of system calls
system.cpu0.numCycles                       312044105                       # number of cpu cycles simulated
system.cpu0.numWorkItemsStarted                     0                       # number of work items this cpu started
system.cpu0.numWorkItemsCompleted                   0                       # number of work items this cpu completed
system.cpu0.committedInsts                   86581969                       # Number of instructions committed
system.cpu0.committedOps                    212679857                       # Number of ops (including micro ops) committed
system.cpu0.num_int_alu_accesses            202647200                       # Number of integer alu accesses
system.cpu0.num_fp_alu_accesses               4749750                       # Number of float alu accesses
system.cpu0.num_func_calls                    6143402                       # number of times a function call or return occured
system.cpu0.num_conditional_control_insts     18150616                       # number of instructions that are conditional controls
system.cpu0.num_int_insts                   202647200                       # number of integer instructions
system.cpu0.num_fp_insts                      4749750                       # number of float instructions
system.cpu0.num_int_register_reads          432078823                       # number of times the integer registers were read
system.cpu0.num_int_register_writes         193091553                       # number of times the integer registers were written
system.cpu0.num_fp_register_reads             7606478                       # number of times the floating registers were read
system.cpu0.num_fp_register_writes            3786676                       # number of times the floating registers were written
system.cpu0.num_cc_register_reads           170016290                       # number of times the CC registers were read
system.cpu0.num_cc_register_writes           63042637                       # number of times the CC registers were written
system.cpu0.num_mem_refs                     40982015                       # number of memory refs
system.cpu0.num_load_insts                   25961910                       # Number of load instructions
system.cpu0.num_store_insts                  15020105                       # Number of store instructions
system.cpu0.num_idle_cycles                  0.002000                       # Number of idle cycles
system.cpu0.num_busy_cycles              312044104.998000                       # Number of busy cycles
system.cpu0.not_idle_fraction                1.000000                       # Percentage of non-idle cycles
system.cpu0.idle_fraction                    0.000000                       # Percentage of idle cycles
system.cpu0.Branches                         27333530                       # Number of branches fetched
system.cpu0.op_class::No_OpClass              3085217      1.45%      1.45% # Class of executed instruction
system.cpu0.op_class::IntAlu                149504203     70.30%     71.75% # Class of executed instruction
system.cpu0.op_class::IntMult                     657      0.00%     71.75% # Class of executed instruction
system.cpu0.op_class::IntDiv                 15322079      7.20%     78.95% # Class of executed instruction
system.cpu0.op_class::FloatAdd                3785686      1.78%     80.73% # Class of executed instruction
system.cpu0.op_class::FloatCmp                      0      0.00%     80.73% # Class of executed instruction
system.cpu0.op_class::FloatCvt                      0      0.00%     80.73% # Class of executed instruction
system.cpu0.op_class::FloatMult                     0      0.00%     80.73% # Class of executed instruction
system.cpu0.op_class::FloatDiv                      0      0.00%     80.73% # Class of executed instruction
system.cpu0.op_class::FloatSqrt                     0      0.00%     80.73% # Class of executed instruction
system.cpu0.op_class::SimdAdd                       0      0.00%     80.73% # Class of executed instruction
system.cpu0.op_class::SimdAddAcc                    0      0.00%     80.73% # Class of executed instruction
system.cpu0.op_class::SimdAlu                       0      0.00%     80.73% # Class of executed instruction
system.cpu0.op_class::SimdCmp                       0      0.00%     80.73% # Class of executed instruction
system.cpu0.op_class::SimdCvt                       0      0.00%     80.73% # Class of executed instruction
system.cpu0.op_class::SimdMisc                      0      0.00%     80.73% # Class of executed instruction
system.cpu0.op_class::SimdMult                      0      0.00%     80.73% # Class of executed instruction
system.cpu0.op_class::SimdMultAcc                   0      0.00%     80.73% # Class of executed instruction
system.cpu0.op_class::SimdShift                     0      0.00%     80.73% # Class of executed instruction
system.cpu0.op_class::SimdShiftAcc                  0      0.00%     80.73% # Class of executed instruction
system.cpu0.op_class::SimdSqrt                      0      0.00%     80.73% # Class of executed instruction
system.cpu0.op_class::SimdFloatAdd                  0      0.00%     80.73% # Class of executed instruction
system.cpu0.op_class::SimdFloatAlu                  0      0.00%     80.73% # Class of executed instruction
system.cpu0.op_class::SimdFloatCmp                  0      0.00%     80.73% # Class of executed instruction
system.cpu0.op_class::SimdFloatCvt                  0      0.00%     80.73% # Class of executed instruction
system.cpu0.op_class::SimdFloatDiv                  0      0.00%     80.73% # Class of executed instruction
system.cpu0.op_class::SimdFloatMisc                 0      0.00%     80.73% # Class of executed instruction
system.cpu0.op_class::SimdFloatMult                 0      0.00%     80.73% # Class of executed instruction
system.cpu0.op_class::SimdFloatMultAcc              0      0.00%     80.73% # Class of executed instruction
system.cpu0.op_class::SimdFloatSqrt                 0      0.00%     80.73% # Class of executed instruction
system.cpu0.op_class::MemRead                25961910     12.21%     92.94% # Class of executed instruction
system.cpu0.op_class::MemWrite               15020105      7.06%    100.00% # Class of executed instruction
system.cpu0.op_class::IprAccess                     0      0.00%    100.00% # Class of executed instruction
system.cpu0.op_class::InstPrefetch                  0      0.00%    100.00% # Class of executed instruction
system.cpu0.op_class::total                 212679857                       # Class of executed instruction
system.cpu1.apic_clk_domain.clock                8000                       # Clock period in ticks
system.cpu1.numCycles                       311877789                       # number of cpu cycles simulated
system.cpu1.numWorkItemsStarted                     0                       # number of work items this cpu started
system.cpu1.numWorkItemsCompleted                   0                       # number of work items this cpu completed
system.cpu1.committedInsts                   20555043                       # Number of instructions committed
system.cpu1.committedOps                     40696119                       # Number of ops (including micro ops) committed
system.cpu1.num_int_alu_accesses             31817696                       # Number of integer alu accesses
system.cpu1.num_fp_alu_accesses              20646430                       # Number of float alu accesses
system.cpu1.num_func_calls                     148553                       # number of times a function call or return occured
system.cpu1.num_conditional_control_insts      2269414                       # number of instructions that are conditional controls
system.cpu1.num_int_insts                    31817696                       # number of integer instructions
system.cpu1.num_fp_insts                     20646430                       # number of float instructions
system.cpu1.num_int_register_reads           60245859                       # number of times the integer registers were read
system.cpu1.num_int_register_writes          17692916                       # number of times the integer registers were written
system.cpu1.num_fp_register_reads            29277756                       # number of times the floating registers were read
system.cpu1.num_fp_register_writes           17460402                       # number of times the floating registers were written
system.cpu1.num_cc_register_reads            13690840                       # number of times the CC registers were read
system.cpu1.num_cc_register_writes           13653284                       # number of times the CC registers were written
system.cpu1.num_mem_refs                     12127941                       # number of memory refs
system.cpu1.num_load_insts                    8867282                       # Number of load instructions
system.cpu1.num_store_insts                   3260659                       # Number of store instructions
system.cpu1.num_idle_cycles              225377801.107441                       # Number of idle cycles
system.cpu1.num_busy_cycles              86499987.892559                       # Number of busy cycles
system.cpu1.not_idle_fraction                0.277352                       # Percentage of non-idle cycles
system.cpu1.idle_fraction                    0.722648                       # Percentage of idle cycles
system.cpu1.Branches                          2498454                       # Number of branches fetched
system.cpu1.op_class::No_OpClass                    9      0.00%      0.00% # Class of executed instruction
system.cpu1.op_class::IntAlu                 19473377     47.85%     47.85% # Class of executed instruction
system.cpu1.op_class::IntMult                  216293      0.53%     48.38% # Class of executed instruction
system.cpu1.op_class::IntDiv                       63      0.00%     48.38% # Class of executed instruction
system.cpu1.op_class::FloatAdd                8878436     21.82%     70.20% # Class of executed instruction
system.cpu1.op_class::FloatCmp                      0      0.00%     70.20% # Class of executed instruction
system.cpu1.op_class::FloatCvt                      0      0.00%     70.20% # Class of executed instruction
system.cpu1.op_class::FloatMult                     0      0.00%     70.20% # Class of executed instruction
system.cpu1.op_class::FloatDiv                      0      0.00%     70.20% # Class of executed instruction
system.cpu1.op_class::FloatSqrt                     0      0.00%     70.20% # Class of executed instruction
system.cpu1.op_class::SimdAdd                       0      0.00%     70.20% # Class of executed instruction
system.cpu1.op_class::SimdAddAcc                    0      0.00%     70.20% # Class of executed instruction
system.cpu1.op_class::SimdAlu                       0      0.00%     70.20% # Class of executed instruction
system.cpu1.op_class::SimdCmp                       0      0.00%     70.20% # Class of executed instruction
system.cpu1.op_class::SimdCvt                       0      0.00%     70.20% # Class of executed instruction
system.cpu1.op_class::SimdMisc                      0      0.00%     70.20% # Class of executed instruction
system.cpu1.op_class::SimdMult                      0      0.00%     70.20% # Class of executed instruction
system.cpu1.op_class::SimdMultAcc                   0      0.00%     70.20% # Class of executed instruction
system.cpu1.op_class::SimdShift                     0      0.00%     70.20% # Class of executed instruction
system.cpu1.op_class::SimdShiftAcc                  0      0.00%     70.20% # Class of executed instruction
system.cpu1.op_class::SimdSqrt                      0      0.00%     70.20% # Class of executed instruction
system.cpu1.op_class::SimdFloatAdd                  0      0.00%     70.20% # Class of executed instruction
system.cpu1.op_class::SimdFloatAlu                  0      0.00%     70.20% # Class of executed instruction
system.cpu1.op_class::SimdFloatCmp                  0      0.00%     70.20% # Class of executed instruction
system.cpu1.op_class::SimdFloatCvt                  0      0.00%     70.20% # Class of executed instruction
system.cpu1.op_class::SimdFloatDiv                  0      0.00%     70.20% # Class of executed instruction
system.cpu1.op_class::SimdFloatMisc                 0      0.00%     70.20% # Class of executed instruction
system.cpu1.op_class::SimdFloatMult                 0      0.00%     70.20% # Class of executed instruction
system.cpu1.op_class::SimdFloatMultAcc              0      0.00%     70.20% # Class of executed instruction
system.cpu1.op_class::SimdFloatSqrt                 0      0.00%     70.20% # Class of executed instruction
system.cpu1.op_class::MemRead                 8867282     21.79%     91.99% # Class of executed instruction
system.cpu1.op_class::MemWrite                3260659      8.01%    100.00% # Class of executed instruction
system.cpu1.op_class::IprAccess                     0      0.00%    100.00% # Class of executed instruction
system.cpu1.op_class::InstPrefetch                  0      0.00%    100.00% # Class of executed instruction
system.cpu1.op_class::total                  40696119                       # Class of executed instruction
system.ruby.clk_domain.clock                      500                       # Clock period in ticks
system.ruby.delayHist::bucket_size                  2                       # delay histogram for all message
system.ruby.delayHist::max_bucket                  19                       # delay histogram for all message
system.ruby.delayHist::samples                2594343                       # delay histogram for all message
system.ruby.delayHist::mean                  0.568575                       # delay histogram for all message
system.ruby.delayHist::stdev                 2.054794                       # delay histogram for all message
system.ruby.delayHist                    |     2409739     92.88%     92.88% |          33      0.00%     92.89% |         519      0.02%     92.91% |           0      0.00%     92.91% |      184051      7.09%    100.00% |           1      0.00%    100.00% |           0      0.00%    100.00% |           0      0.00%    100.00% |           0      0.00%    100.00% |           0      0.00%    100.00% # delay histogram for all message
system.ruby.delayHist::total                  2594343                       # delay histogram for all message
system.ruby.outstanding_req_hist::bucket_size            1                      
system.ruby.outstanding_req_hist::max_bucket            9                      
system.ruby.outstanding_req_hist::samples    190737543                      
system.ruby.outstanding_req_hist::mean       1.000547                      
system.ruby.outstanding_req_hist::gmean      1.000379                      
system.ruby.outstanding_req_hist::stdev      0.023384                      
system.ruby.outstanding_req_hist         |           0      0.00%      0.00% |   190633189     99.95%     99.95% |      104354      0.05%    100.00% |           0      0.00%    100.00% |           0      0.00%    100.00% |           0      0.00%    100.00% |           0      0.00%    100.00% |           0      0.00%    100.00% |           0      0.00%    100.00% |           0      0.00%    100.00%
system.ruby.outstanding_req_hist::total     190737543                      
system.ruby.latency_hist::bucket_size             128                      
system.ruby.latency_hist::max_bucket             1279                      
system.ruby.latency_hist::samples           190737543                      
system.ruby.latency_hist::mean               1.090478                      
system.ruby.latency_hist::gmean              1.009344                      
system.ruby.latency_hist::stdev              3.129473                      
system.ruby.latency_hist                 |   190721634     99.99%     99.99% |       13786      0.01%    100.00% |          39      0.00%    100.00% |         175      0.00%    100.00% |        1695      0.00%    100.00% |         214      0.00%    100.00% |           0      0.00%    100.00% |           0      0.00%    100.00% |           0      0.00%    100.00% |           0      0.00%    100.00%
system.ruby.latency_hist::total             190737543                      
system.ruby.hit_latency_hist::bucket_size          128                      
system.ruby.hit_latency_hist::max_bucket         1279                      
system.ruby.hit_latency_hist::samples       190737543                      
system.ruby.hit_latency_hist::mean           1.090478                      
system.ruby.hit_latency_hist::gmean          1.009344                      
system.ruby.hit_latency_hist::stdev          3.129473                      
system.ruby.hit_latency_hist             |   190721634     99.99%     99.99% |       13786      0.01%    100.00% |          39      0.00%    100.00% |         175      0.00%    100.00% |        1695      0.00%    100.00% |         214      0.00%    100.00% |           0      0.00%    100.00% |           0      0.00%    100.00% |           0      0.00%    100.00% |           0      0.00%    100.00%
system.ruby.hit_latency_hist::total         190737543                      
system.ruby.l0_cntrl0.Dcache.demand_hits     40915298                       # Number of cache demand hits
system.ruby.l0_cntrl0.Dcache.demand_misses        66767                       # Number of cache demand misses
system.ruby.l0_cntrl0.Dcache.demand_accesses     40982065                       # Number of cache demand accesses
system.ruby.l0_cntrl0.Icache.demand_hits    110663658                       # Number of cache demand hits
system.ruby.l0_cntrl0.Icache.demand_misses         2443                       # Number of cache demand misses
system.ruby.l0_cntrl0.Icache.demand_accesses    110666101                       # Number of cache demand accesses
system.ruby.l0_cntrl0.Zcache.demand_hits            0                       # Number of cache demand hits
system.ruby.l0_cntrl0.Zcache.demand_misses            0                       # Number of cache demand misses
system.ruby.l0_cntrl0.Zcache.demand_accesses            0                       # Number of cache demand accesses
system.ruby.l0_cntrl1.Dcache.demand_hits     11629576                       # Number of cache demand hits
system.ruby.l0_cntrl1.Dcache.demand_misses       602669                       # Number of cache demand misses
system.ruby.l0_cntrl1.Dcache.demand_accesses     12232245                       # Number of cache demand accesses
system.ruby.l0_cntrl1.Icache.demand_hits     26856550                       # Number of cache demand hits
system.ruby.l0_cntrl1.Icache.demand_misses          582                       # Number of cache demand misses
system.ruby.l0_cntrl1.Icache.demand_accesses     26857132                       # Number of cache demand accesses
system.ruby.l0_cntrl1.Zcache.demand_hits            0                       # Number of cache demand hits
system.ruby.l0_cntrl1.Zcache.demand_misses            0                       # Number of cache demand misses
system.ruby.l0_cntrl1.Zcache.demand_accesses            0                       # Number of cache demand accesses
system.ruby.l1_cntrl0.cache.demand_hits          5564                       # Number of cache demand hits
system.ruby.l1_cntrl0.cache.demand_misses        63646                       # Number of cache demand misses
system.ruby.l1_cntrl0.cache.demand_accesses        69210                       # Number of cache demand accesses
system.ruby.l1_cntrl1.cache.demand_hits        288503                       # Number of cache demand hits
system.ruby.l1_cntrl1.cache.demand_misses       314748                       # Number of cache demand misses
system.ruby.l1_cntrl1.cache.demand_accesses       603251                       # Number of cache demand accesses
system.ruby.l2_cntrl0.L2cache.demand_hits       307413                       # Number of cache demand hits
system.ruby.l2_cntrl0.L2cache.demand_misses        70981                       # Number of cache demand misses
system.ruby.l2_cntrl0.L2cache.demand_accesses       378394                       # Number of cache demand accesses
system.ruby.memctrl_clk_domain.clock             1500                       # Clock period in ticks
system.ruby.network.routers0.percent_links_utilized            0                      
system.ruby.network.routers1.percent_links_utilized            0                      
system.ruby.network.routers2.percent_links_utilized     0.109620                      
system.ruby.network.routers2.msg_count.Control::0        63646                      
system.ruby.network.routers2.msg_count.Request_Control::2         7948                      
system.ruby.network.routers2.msg_count.Response_Data::1        71614                      
system.ruby.network.routers2.msg_count.Response_Control::1        62870                      
system.ruby.network.routers2.msg_count.Response_Control::2        63646                      
system.ruby.network.routers2.msg_count.Writeback_Data::0        58342                      
system.ruby.network.routers2.msg_count.Writeback_Control::0          532                      
system.ruby.network.routers2.msg_bytes.Control::0       509168                      
system.ruby.network.routers2.msg_bytes.Request_Control::2        63584                      
system.ruby.network.routers2.msg_bytes.Response_Data::1      5156208                      
system.ruby.network.routers2.msg_bytes.Response_Control::1       502960                      
system.ruby.network.routers2.msg_bytes.Response_Control::2       509168                      
system.ruby.network.routers2.msg_bytes.Writeback_Data::0      4200624                      
system.ruby.network.routers2.msg_bytes.Writeback_Control::0         4256                      
system.ruby.network.routers3.percent_links_utilized     0.398724                      
system.ruby.network.routers3.msg_count.Control::0       314748                      
system.ruby.network.routers3.msg_count.Request_Control::2           44                      
system.ruby.network.routers3.msg_count.Response_Data::1       310842                      
system.ruby.network.routers3.msg_count.Response_Control::1       299540                      
system.ruby.network.routers3.msg_count.Response_Control::2       299681                      
system.ruby.network.routers3.msg_count.Writeback_Data::0       121696                      
system.ruby.network.routers3.msg_count.Writeback_Control::0       169924                      
system.ruby.network.routers3.msg_bytes.Control::0      2517984                      
system.ruby.network.routers3.msg_bytes.Request_Control::2          352                      
system.ruby.network.routers3.msg_bytes.Response_Data::1     22380624                      
system.ruby.network.routers3.msg_bytes.Response_Control::1      2396320                      
system.ruby.network.routers3.msg_bytes.Response_Control::2      2397448                      
system.ruby.network.routers3.msg_bytes.Writeback_Data::0      8762112                      
system.ruby.network.routers3.msg_bytes.Writeback_Control::0      1359392                      
system.ruby.network.routers4.percent_links_utilized     0.555559                      
system.ruby.network.routers4.msg_count.Control::0       445356                      
system.ruby.network.routers4.msg_count.Request_Control::2         7992                      
system.ruby.network.routers4.msg_count.Response_Data::1       441380                      
system.ruby.network.routers4.msg_count.Response_Control::1       354464                      
system.ruby.network.routers4.msg_count.Response_Control::2       363327                      
system.ruby.network.routers4.msg_count.Writeback_Data::0       180038                      
system.ruby.network.routers4.msg_count.Writeback_Control::0       170456                      
system.ruby.network.routers4.msg_bytes.Control::0      3562848                      
system.ruby.network.routers4.msg_bytes.Request_Control::2        63936                      
system.ruby.network.routers4.msg_bytes.Response_Data::1     31779360                      
system.ruby.network.routers4.msg_bytes.Response_Control::1      2835712                      
system.ruby.network.routers4.msg_bytes.Response_Control::2      2906616                      
system.ruby.network.routers4.msg_bytes.Writeback_Data::0     12962736                      
system.ruby.network.routers4.msg_bytes.Writeback_Control::0      1363648                      
system.ruby.network.routers5.percent_links_utilized     0.053648                      
system.ruby.network.routers5.msg_count.Control::0        66962                      
system.ruby.network.routers5.msg_count.Response_Data::1        66962                      
system.ruby.network.routers5.msg_bytes.Control::0       535696                      
system.ruby.network.routers5.msg_bytes.Response_Data::1      4821264                      
system.ruby.network.routers6.percent_links_utilized     0.186258                      
system.ruby.network.routers6.msg_count.Control::0       445356                      
system.ruby.network.routers6.msg_count.Request_Control::2         7992                      
system.ruby.network.routers6.msg_count.Response_Data::1       445399                      
system.ruby.network.routers6.msg_count.Response_Control::1       358437                      
system.ruby.network.routers6.msg_count.Response_Control::2       363327                      
system.ruby.network.routers6.msg_count.Writeback_Data::0       180038                      
system.ruby.network.routers6.msg_count.Writeback_Control::0       170456                      
system.ruby.network.routers6.msg_bytes.Control::0      3562848                      
system.ruby.network.routers6.msg_bytes.Request_Control::2        63936                      
system.ruby.network.routers6.msg_bytes.Response_Data::1     32068728                      
system.ruby.network.routers6.msg_bytes.Response_Control::1      2867496                      
system.ruby.network.routers6.msg_bytes.Response_Control::2      2906616                      
system.ruby.network.routers6.msg_bytes.Writeback_Data::0     12962736                      
system.ruby.network.routers6.msg_bytes.Writeback_Control::0      1363648                      
system.ruby.network.msg_count.Control         1336068                      
system.ruby.network.msg_count.Request_Control        23976                      
system.ruby.network.msg_count.Response_Data      1336197                      
system.ruby.network.msg_count.Response_Control      2165292                      
system.ruby.network.msg_count.Writeback_Data       540114                      
system.ruby.network.msg_count.Writeback_Control       511368                      
system.ruby.network.msg_byte.Control         10688544                      
system.ruby.network.msg_byte.Request_Control       191808                      
system.ruby.network.msg_byte.Response_Data     96206184                      
system.ruby.network.msg_byte.Response_Control     17322336                      
system.ruby.network.msg_byte.Writeback_Data     38888208                      
system.ruby.network.msg_byte.Writeback_Control      4090944                      
system.ruby.network.routers0.throttle0.link_utilization            0                      
system.ruby.network.routers0.throttle1.link_utilization            0                      
system.ruby.network.routers1.throttle0.link_utilization            0                      
system.ruby.network.routers1.throttle1.link_utilization            0                      
system.ruby.network.routers2.throttle0.link_utilization     0.102465                      
system.ruby.network.routers2.throttle0.msg_count.Request_Control::2         7948                      
system.ruby.network.routers2.throttle0.msg_count.Response_Data::1        63623                      
system.ruby.network.routers2.throttle0.msg_count.Response_Control::1        58920                      
system.ruby.network.routers2.throttle0.msg_bytes.Request_Control::2        63584                      
system.ruby.network.routers2.throttle0.msg_bytes.Response_Data::1      4580856                      
system.ruby.network.routers2.throttle0.msg_bytes.Response_Control::1       471360                      
system.ruby.network.routers2.throttle1.link_utilization     0.116774                      
system.ruby.network.routers2.throttle1.msg_count.Control::0        63646                      
system.ruby.network.routers2.throttle1.msg_count.Response_Data::1         7991                      
system.ruby.network.routers2.throttle1.msg_count.Response_Control::1         3950                      
system.ruby.network.routers2.throttle1.msg_count.Response_Control::2        63646                      
system.ruby.network.routers2.throttle1.msg_count.Writeback_Data::0        58342                      
system.ruby.network.routers2.throttle1.msg_count.Writeback_Control::0          532                      
system.ruby.network.routers2.throttle1.msg_bytes.Control::0       509168                      
system.ruby.network.routers2.throttle1.msg_bytes.Response_Data::1       575352                      
system.ruby.network.routers2.throttle1.msg_bytes.Response_Control::1        31600                      
system.ruby.network.routers2.throttle1.msg_bytes.Response_Control::2       509168                      
system.ruby.network.routers2.throttle1.msg_bytes.Writeback_Data::0      4200624                      
system.ruby.network.routers2.throttle1.msg_bytes.Writeback_Control::0         4256                      
system.ruby.network.routers3.throttle0.link_utilization     0.496207                      
system.ruby.network.routers3.throttle0.msg_count.Request_Control::2           44                      
system.ruby.network.routers3.throttle0.msg_count.Response_Data::1       310801                      
system.ruby.network.routers3.throttle0.msg_count.Response_Control::1       299517                      
system.ruby.network.routers3.throttle0.msg_bytes.Request_Control::2          352                      
system.ruby.network.routers3.throttle0.msg_bytes.Response_Data::1     22377672                      
system.ruby.network.routers3.throttle0.msg_bytes.Response_Control::1      2396136                      
system.ruby.network.routers3.throttle1.link_utilization     0.301241                      
system.ruby.network.routers3.throttle1.msg_count.Control::0       314748                      
system.ruby.network.routers3.throttle1.msg_count.Response_Data::1           41                      
system.ruby.network.routers3.throttle1.msg_count.Response_Control::1           23                      
system.ruby.network.routers3.throttle1.msg_count.Response_Control::2       299681                      
system.ruby.network.routers3.throttle1.msg_count.Writeback_Data::0       121696                      
system.ruby.network.routers3.throttle1.msg_count.Writeback_Control::0       169924                      
system.ruby.network.routers3.throttle1.msg_bytes.Control::0      2517984                      
system.ruby.network.routers3.throttle1.msg_bytes.Response_Data::1         2952                      
system.ruby.network.routers3.throttle1.msg_bytes.Response_Control::1          184                      
system.ruby.network.routers3.throttle1.msg_bytes.Response_Control::2      2397448                      
system.ruby.network.routers3.throttle1.msg_bytes.Writeback_Data::0      8762112                      
system.ruby.network.routers3.throttle1.msg_bytes.Writeback_Control::0      1359392                      
system.ruby.network.routers4.throttle0.link_utilization     0.508148                      
system.ruby.network.routers4.throttle0.msg_count.Control::0       378394                      
system.ruby.network.routers4.throttle0.msg_count.Response_Data::1        70975                      
system.ruby.network.routers4.throttle0.msg_count.Response_Control::2       363327                      
system.ruby.network.routers4.throttle0.msg_count.Writeback_Data::0       180038                      
system.ruby.network.routers4.throttle0.msg_count.Writeback_Control::0       170456                      
system.ruby.network.routers4.throttle0.msg_bytes.Control::0      3027152                      
system.ruby.network.routers4.throttle0.msg_bytes.Response_Data::1      5110200                      
system.ruby.network.routers4.throttle0.msg_bytes.Response_Control::2      2906616                      
system.ruby.network.routers4.throttle0.msg_bytes.Writeback_Data::0     12962736                      
system.ruby.network.routers4.throttle0.msg_bytes.Writeback_Control::0      1363648                      
system.ruby.network.routers4.throttle1.link_utilization     0.602970                      
system.ruby.network.routers4.throttle1.msg_count.Control::0        66962                      
system.ruby.network.routers4.throttle1.msg_count.Request_Control::2         7992                      
system.ruby.network.routers4.throttle1.msg_count.Response_Data::1       370405                      
system.ruby.network.routers4.throttle1.msg_count.Response_Control::1       354464                      
system.ruby.network.routers4.throttle1.msg_bytes.Control::0       535696                      
system.ruby.network.routers4.throttle1.msg_bytes.Request_Control::2        63936                      
system.ruby.network.routers4.throttle1.msg_bytes.Response_Data::1     26669160                      
system.ruby.network.routers4.throttle1.msg_bytes.Response_Control::1      2835712                      
system.ruby.network.routers5.throttle0.link_utilization     0.010730                      
system.ruby.network.routers5.throttle0.msg_count.Control::0        66962                      
system.ruby.network.routers5.throttle0.msg_bytes.Control::0       535696                      
system.ruby.network.routers5.throttle1.link_utilization     0.096566                      
system.ruby.network.routers5.throttle1.msg_count.Response_Data::1        66962                      
system.ruby.network.routers5.throttle1.msg_bytes.Response_Data::1      4821264                      
system.ruby.network.routers6.throttle0.link_utilization            0                      
system.ruby.network.routers6.throttle1.link_utilization            0                      
system.ruby.network.routers6.throttle2.link_utilization     0.102465                      
system.ruby.network.routers6.throttle2.msg_count.Request_Control::2         7948                      
system.ruby.network.routers6.throttle2.msg_count.Response_Data::1        63623                      
system.ruby.network.routers6.throttle2.msg_count.Response_Control::1        58920                      
system.ruby.network.routers6.throttle2.msg_bytes.Request_Control::2        63584                      
system.ruby.network.routers6.throttle2.msg_bytes.Response_Data::1      4580856                      
system.ruby.network.routers6.throttle2.msg_bytes.Response_Control::1       471360                      
system.ruby.network.routers6.throttle3.link_utilization     0.496207                      
system.ruby.network.routers6.throttle3.msg_count.Request_Control::2           44                      
system.ruby.network.routers6.throttle3.msg_count.Response_Data::1       310801                      
system.ruby.network.routers6.throttle3.msg_count.Response_Control::1       299517                      
system.ruby.network.routers6.throttle3.msg_bytes.Request_Control::2          352                      
system.ruby.network.routers6.throttle3.msg_bytes.Response_Data::1     22377672                      
system.ruby.network.routers6.throttle3.msg_bytes.Response_Control::1      2396136                      
system.ruby.network.routers6.throttle4.link_utilization     0.508148                      
system.ruby.network.routers6.throttle4.msg_count.Control::0       378394                      
system.ruby.network.routers6.throttle4.msg_count.Response_Data::1        70975                      
system.ruby.network.routers6.throttle4.msg_count.Response_Control::2       363327                      
system.ruby.network.routers6.throttle4.msg_count.Writeback_Data::0       180038                      
system.ruby.network.routers6.throttle4.msg_count.Writeback_Control::0       170456                      
system.ruby.network.routers6.throttle4.msg_bytes.Control::0      3027152                      
system.ruby.network.routers6.throttle4.msg_bytes.Response_Data::1      5110200                      
system.ruby.network.routers6.throttle4.msg_bytes.Response_Control::2      2906616                      
system.ruby.network.routers6.throttle4.msg_bytes.Writeback_Data::0     12962736                      
system.ruby.network.routers6.throttle4.msg_bytes.Writeback_Control::0      1363648                      
system.ruby.network.routers6.throttle5.link_utilization     0.010730                      
system.ruby.network.routers6.throttle5.msg_count.Control::0        66962                      
system.ruby.network.routers6.throttle5.msg_bytes.Control::0       535696                      
system.ruby.delayVCHist.vnet_0::bucket_size            2                       # delay histogram for vnet_0
system.ruby.delayVCHist.vnet_0::max_bucket           19                       # delay histogram for vnet_0
system.ruby.delayVCHist.vnet_0::samples       1092215                       # delay histogram for vnet_0
system.ruby.delayVCHist.vnet_0::mean         1.318770                       # delay histogram for vnet_0
system.ruby.delayVCHist.vnet_0::stdev        2.968277                       # delay histogram for vnet_0
system.ruby.delayVCHist.vnet_0           |      912143     83.51%     83.51% |          33      0.00%     83.52% |           0      0.00%     83.52% |           0      0.00%     83.52% |      180038     16.48%    100.00% |           1      0.00%    100.00% |           0      0.00%    100.00% |           0      0.00%    100.00% |           0      0.00%    100.00% |           0      0.00%    100.00% # delay histogram for vnet_0
system.ruby.delayVCHist.vnet_0::total         1092215                       # delay histogram for vnet_0
system.ruby.delayVCHist.vnet_1::bucket_size            1                       # delay histogram for vnet_1
system.ruby.delayVCHist.vnet_1::max_bucket            9                       # delay histogram for vnet_1
system.ruby.delayVCHist.vnet_1::samples       1476297                       # delay histogram for vnet_1
system.ruby.delayVCHist.vnet_1::mean         0.021746                       # delay histogram for vnet_1
system.ruby.delayVCHist.vnet_1::stdev        0.416530                       # delay histogram for vnet_1
system.ruby.delayVCHist.vnet_1           |     1472284     99.73%     99.73% |           0      0.00%     99.73% |           0      0.00%     99.73% |           0      0.00%     99.73% |           0      0.00%     99.73% |           0      0.00%     99.73% |           0      0.00%     99.73% |           0      0.00%     99.73% |        4013      0.27%    100.00% |           0      0.00%    100.00% # delay histogram for vnet_1
system.ruby.delayVCHist.vnet_1::total         1476297                       # delay histogram for vnet_1
system.ruby.delayVCHist.vnet_2::bucket_size            1                       # delay histogram for vnet_2
system.ruby.delayVCHist.vnet_2::max_bucket            9                       # delay histogram for vnet_2
system.ruby.delayVCHist.vnet_2::samples         25831                       # delay histogram for vnet_2
system.ruby.delayVCHist.vnet_2::mean         0.100461                       # delay histogram for vnet_2
system.ruby.delayVCHist.vnet_2::stdev        0.701591                       # delay histogram for vnet_2
system.ruby.delayVCHist.vnet_2           |       25312     97.99%     97.99% |           0      0.00%     97.99% |           0      0.00%     97.99% |           0      0.00%     97.99% |           0      0.00%     97.99% |         519      2.01%    100.00% |           0      0.00%    100.00% |           0      0.00%    100.00% |           0      0.00%    100.00% |           0      0.00%    100.00% # delay histogram for vnet_2
system.ruby.delayVCHist.vnet_2::total           25831                       # delay histogram for vnet_2
system.ruby.LD.latency_hist::bucket_size          128                      
system.ruby.LD.latency_hist::max_bucket          1279                      
system.ruby.LD.latency_hist::samples         32863057                      
system.ruby.LD.latency_hist::mean            1.252749                      
system.ruby.LD.latency_hist::gmean           1.044812                      
system.ruby.LD.latency_hist::stdev           2.591550                      
system.ruby.LD.latency_hist              |    32862699    100.00%    100.00% |         293      0.00%    100.00% |           1      0.00%    100.00% |          19      0.00%    100.00% |          35      0.00%    100.00% |          10      0.00%    100.00% |           0      0.00%    100.00% |           0      0.00%    100.00% |           0      0.00%    100.00% |           0      0.00%    100.00%
system.ruby.LD.latency_hist::total           32863057                      
system.ruby.LD.hit_latency_hist::bucket_size          128                      
system.ruby.LD.hit_latency_hist::max_bucket         1279                      
system.ruby.LD.hit_latency_hist::samples     32863057                      
system.ruby.LD.hit_latency_hist::mean        1.252749                      
system.ruby.LD.hit_latency_hist::gmean       1.044812                      
system.ruby.LD.hit_latency_hist::stdev       2.591550                      
system.ruby.LD.hit_latency_hist          |    32862699    100.00%    100.00% |         293      0.00%    100.00% |           1      0.00%    100.00% |          19      0.00%    100.00% |          35      0.00%    100.00% |          10      0.00%    100.00% |           0      0.00%    100.00% |           0      0.00%    100.00% |           0      0.00%    100.00% |           0      0.00%    100.00%
system.ruby.LD.hit_latency_hist::total       32863057                      
system.ruby.ST.latency_hist::bucket_size          128                      
system.ruby.ST.latency_hist::max_bucket          1279                      
system.ruby.ST.latency_hist::samples         16259779                      
system.ruby.ST.latency_hist::mean            1.539564                      
system.ruby.ST.latency_hist::gmean           1.020072                      
system.ruby.ST.latency_hist::stdev           9.975598                      
system.ruby.ST.latency_hist              |    16244501     99.91%     99.91% |       13236      0.08%     99.99% |          38      0.00%     99.99% |         154      0.00%     99.99% |        1652      0.01%    100.00% |         198      0.00%    100.00% |           0      0.00%    100.00% |           0      0.00%    100.00% |           0      0.00%    100.00% |           0      0.00%    100.00%
system.ruby.ST.latency_hist::total           16259779                      
system.ruby.ST.hit_latency_hist::bucket_size          128                      
system.ruby.ST.hit_latency_hist::max_bucket         1279                      
system.ruby.ST.hit_latency_hist::samples     16259779                      
system.ruby.ST.hit_latency_hist::mean        1.539564                      
system.ruby.ST.hit_latency_hist::gmean       1.020072                      
system.ruby.ST.hit_latency_hist::stdev       9.975598                      
system.ruby.ST.hit_latency_hist          |    16244501     99.91%     99.91% |       13236      0.08%     99.99% |          38      0.00%     99.99% |         154      0.00%     99.99% |        1652      0.01%    100.00% |         198      0.00%    100.00% |           0      0.00%    100.00% |           0      0.00%    100.00% |           0      0.00%    100.00% |           0      0.00%    100.00%
system.ruby.ST.hit_latency_hist::total       16259779                      
system.ruby.IFETCH.latency_hist::bucket_size          128                      
system.ruby.IFETCH.latency_hist::max_bucket         1279                      
system.ruby.IFETCH.latency_hist::samples    137523233                      
system.ruby.IFETCH.latency_hist::mean        1.001284                      
system.ruby.IFETCH.latency_hist::gmean       1.000074                      
system.ruby.IFETCH.latency_hist::stdev       0.416777                      
system.ruby.IFETCH.latency_hist          |   137522962    100.00%    100.00% |         255      0.00%    100.00% |           0      0.00%    100.00% |           2      0.00%    100.00% |           8      0.00%    100.00% |           6      0.00%    100.00% |           0      0.00%    100.00% |           0      0.00%    100.00% |           0      0.00%    100.00% |           0      0.00%    100.00%
system.ruby.IFETCH.latency_hist::total      137523233                      
system.ruby.IFETCH.hit_latency_hist::bucket_size          128                      
system.ruby.IFETCH.hit_latency_hist::max_bucket         1279                      
system.ruby.IFETCH.hit_latency_hist::samples    137523233                      
system.ruby.IFETCH.hit_latency_hist::mean     1.001284                      
system.ruby.IFETCH.hit_latency_hist::gmean     1.000074                      
system.ruby.IFETCH.hit_latency_hist::stdev     0.416777                      
system.ruby.IFETCH.hit_latency_hist      |   137522962    100.00%    100.00% |         255      0.00%    100.00% |           0      0.00%    100.00% |           2      0.00%    100.00% |           8      0.00%    100.00% |           6      0.00%    100.00% |           0      0.00%    100.00% |           0      0.00%    100.00% |           0      0.00%    100.00% |           0      0.00%    100.00%
system.ruby.IFETCH.hit_latency_hist::total    137523233                      
system.ruby.RMW_Read.latency_hist::bucket_size           16                      
system.ruby.RMW_Read.latency_hist::max_bucket          159                      
system.ruby.RMW_Read.latency_hist::samples          666                      
system.ruby.RMW_Read.latency_hist::mean      2.160661                      
system.ruby.RMW_Read.latency_hist::gmean     1.154733                      
system.ruby.RMW_Read.latency_hist::stdev     7.148249                      
system.ruby.RMW_Read.latency_hist        |         639     95.95%     95.95% |          22      3.30%     99.25% |           4      0.60%     99.85% |           0      0.00%     99.85% |           0      0.00%     99.85% |           0      0.00%     99.85% |           0      0.00%     99.85% |           0      0.00%     99.85% |           1      0.15%    100.00% |           0      0.00%    100.00%
system.ruby.RMW_Read.latency_hist::total          666                      
system.ruby.RMW_Read.hit_latency_hist::bucket_size           16                      
system.ruby.RMW_Read.hit_latency_hist::max_bucket          159                      
system.ruby.RMW_Read.hit_latency_hist::samples          666                      
system.ruby.RMW_Read.hit_latency_hist::mean     2.160661                      
system.ruby.RMW_Read.hit_latency_hist::gmean     1.154733                      
system.ruby.RMW_Read.hit_latency_hist::stdev     7.148249                      
system.ruby.RMW_Read.hit_latency_hist    |         639     95.95%     95.95% |          22      3.30%     99.25% |           4      0.60%     99.85% |           0      0.00%     99.85% |           0      0.00%     99.85% |           0      0.00%     99.85% |           0      0.00%     99.85% |           0      0.00%     99.85% |           1      0.15%    100.00% |           0      0.00%    100.00%
system.ruby.RMW_Read.hit_latency_hist::total          666                      
system.ruby.Locked_RMW_Read.latency_hist::bucket_size           16                      
system.ruby.Locked_RMW_Read.latency_hist::max_bucket          159                      
system.ruby.Locked_RMW_Read.latency_hist::samples      2045404                      
system.ruby.Locked_RMW_Read.latency_hist::mean     1.000436                      
system.ruby.Locked_RMW_Read.latency_hist::gmean     1.000048                      
system.ruby.Locked_RMW_Read.latency_hist::stdev     0.153491                      
system.ruby.Locked_RMW_Read.latency_hist |     2045376    100.00%    100.00% |          23      0.00%    100.00% |           3      0.00%    100.00% |           0      0.00%    100.00% |           0      0.00%    100.00% |           0      0.00%    100.00% |           0      0.00%    100.00% |           1      0.00%    100.00% |           1      0.00%    100.00% |           0      0.00%    100.00%
system.ruby.Locked_RMW_Read.latency_hist::total      2045404                      
system.ruby.Locked_RMW_Read.hit_latency_hist::bucket_size           16                      
system.ruby.Locked_RMW_Read.hit_latency_hist::max_bucket          159                      
system.ruby.Locked_RMW_Read.hit_latency_hist::samples      2045404                      
system.ruby.Locked_RMW_Read.hit_latency_hist::mean     1.000436                      
system.ruby.Locked_RMW_Read.hit_latency_hist::gmean     1.000048                      
system.ruby.Locked_RMW_Read.hit_latency_hist::stdev     0.153491                      
system.ruby.Locked_RMW_Read.hit_latency_hist |     2045376    100.00%    100.00% |          23      0.00%    100.00% |           3      0.00%    100.00% |           0      0.00%    100.00% |           0      0.00%    100.00% |           0      0.00%    100.00% |           0      0.00%    100.00% |           1      0.00%    100.00% |           1      0.00%    100.00% |           0      0.00%    100.00%
system.ruby.Locked_RMW_Read.hit_latency_hist::total      2045404                      
system.ruby.Locked_RMW_Write.latency_hist::bucket_size            1                      
system.ruby.Locked_RMW_Write.latency_hist::max_bucket            9                      
system.ruby.Locked_RMW_Write.latency_hist::samples      2045404                      
system.ruby.Locked_RMW_Write.latency_hist::mean            1                      
system.ruby.Locked_RMW_Write.latency_hist::gmean            1                      
[...]
system.ruby.L0Cache_Controller.Store::total     20351253                      
system.ruby.L0Cache_Controller.Inv       |        1252      7.02%      7.02% |       16587     92.98%    100.00%
system.ruby.L0Cache_Controller.Inv::total        17839                      
system.ruby.L0Cache_Controller.L0_Replacement |       67331     10.13%     10.13% |      597162     89.87%    100.00%
system.ruby.L0Cache_Controller.L0_Replacement::total       664493                      
system.ruby.L0Cache_Controller.Data      |          48      0.25%      0.25% |       19302     99.75%    100.00%
system.ruby.L0Cache_Controller.Data::total        19350                      
system.ruby.L0Cache_Controller.Data_Exclusive |       69162     10.59%     10.59% |      583949     89.41%    100.00%
system.ruby.L0Cache_Controller.Data_Exclusive::total       653111                      
system.ruby.L0Cache_Controller.NP.Load   |        2985      0.50%      0.50% |      597030     99.50%    100.00%
system.ruby.L0Cache_Controller.NP.Load::total       600015                      
system.ruby.L0Cache_Controller.NP.Ifetch |        2443     80.76%     80.76% |         582     19.24%    100.00%
system.ruby.L0Cache_Controller.NP.Ifetch::total         3025                      
system.ruby.L0Cache_Controller.NP.Store  |       63759     97.41%     97.41% |        1695      2.59%    100.00%
system.ruby.L0Cache_Controller.NP.Store::total        65454                      
system.ruby.L0Cache_Controller.NP.Inv    |           0      0.00%      0.00% |       14963    100.00%    100.00%
system.ruby.L0Cache_Controller.NP.Inv::total        14963                      
system.ruby.L0Cache_Controller.S.Load    |     4808328     93.99%     93.99% |      307578      6.01%    100.00%
system.ruby.L0Cache_Controller.S.Load::total      5115906                      
system.ruby.L0Cache_Controller.S.Ifetch  |         168     10.46%     10.46% |        1438     89.54%    100.00%
system.ruby.L0Cache_Controller.S.Ifetch::total         1606                      
system.ruby.L0Cache_Controller.S.Store   |          23      0.58%      0.58% |        3944     99.42%    100.00%
system.ruby.L0Cache_Controller.S.Store::total         3967                      
system.ruby.L0Cache_Controller.S.Inv     |           8      5.97%      5.97% |         126     94.03%    100.00%
system.ruby.L0Cache_Controller.S.Inv::total          134                      
system.ruby.L0Cache_Controller.S.L0_Replacement |          11      0.07%      0.07% |       15221     99.93%    100.00%
system.ruby.L0Cache_Controller.S.L0_Replacement::total        15232                      
system.ruby.L0Cache_Controller.E.Load    |     2834207     35.01%     35.01% |     5260871     64.99%    100.00%
system.ruby.L0Cache_Controller.E.Load::total      8095078                      
system.ruby.L0Cache_Controller.E.Ifetch  |   110663490     80.47%     80.47% |    26855112     19.53%    100.00%
system.ruby.L0Cache_Controller.E.Ifetch::total    137518602                      
system.ruby.L0Cache_Controller.E.Store   |        2227      1.03%      1.03% |      213322     98.97%    100.00%
system.ruby.L0Cache_Controller.E.Store::total       215549                      
system.ruby.L0Cache_Controller.E.Inv     |         716     39.15%     39.15% |        1113     60.85%    100.00%
system.ruby.L0Cache_Controller.E.Inv::total         1829                      
system.ruby.L0Cache_Controller.E.L0_Replacement |        1951      0.53%      0.53% |      363855     99.47%    100.00%
system.ruby.L0Cache_Controller.E.L0_Replacement::total       365806                      
system.ruby.L0Cache_Controller.M.Load    |    16270404     85.40%     85.40% |     2781654     14.60%    100.00%
system.ruby.L0Cache_Controller.M.Load::total     19052058                      
system.ruby.L0Cache_Controller.M.Store   |    17000132     84.72%     84.72% |     3066151     15.28%    100.00%
system.ruby.L0Cache_Controller.M.Store::total     20066283                      
system.ruby.L0Cache_Controller.M.Inv     |         528     57.83%     57.83% |         385     42.17%    100.00%
system.ruby.L0Cache_Controller.M.Inv::total          913                      
system.ruby.L0Cache_Controller.M.L0_Replacement |       65369     23.06%     23.06% |      218086     76.94%    100.00%
system.ruby.L0Cache_Controller.M.L0_Replacement::total       283455                      
system.ruby.L0Cache_Controller.IS.Data   |          48      0.25%      0.25% |       19302     99.75%    100.00%
system.ruby.L0Cache_Controller.IS.Data::total        19350                      
system.ruby.L0Cache_Controller.IS.Data_Exclusive |        5380      0.92%      0.92% |      578310     99.08%    100.00%
system.ruby.L0Cache_Controller.IS.Data_Exclusive::total       583690                      
system.ruby.L0Cache_Controller.IM.Data_Exclusive |       63759     97.41%     97.41% |        1695      2.59%    100.00%
system.ruby.L0Cache_Controller.IM.Data_Exclusive::total        65454                      
system.ruby.L0Cache_Controller.SM.Data_Exclusive |          23      0.58%      0.58% |        3944     99.42%    100.00%
system.ruby.L0Cache_Controller.SM.Data_Exclusive::total         3967                      
system.ruby.L1Cache_Controller.Load      |        5428      0.90%      0.90% |      597612     99.10%    100.00%
system.ruby.L1Cache_Controller.Load::total       603040                      
system.ruby.L1Cache_Controller.Store     |       63782     91.88%     91.88% |        5639      8.12%    100.00%
system.ruby.L1Cache_Controller.Store::total        69421                      
system.ruby.L1Cache_Controller.WriteBack |       67320     10.37%     10.37% |      581941     89.63%    100.00%
system.ruby.L1Cache_Controller.WriteBack::total       649261                      
system.ruby.L1Cache_Controller.L0_DataAck |         528     57.83%     57.83% |         385     42.17%    100.00%
system.ruby.L1Cache_Controller.L0_DataAck::total          913                      
system.ruby.L1Cache_Controller.Inv       |        3950     99.42%     99.42% |          23      0.58%    100.00%
system.ruby.L1Cache_Controller.Inv::total         3973                      
system.ruby.L1Cache_Controller.L0_Invalidate_Own |        1522      4.39%      4.39% |       33118     95.61%    100.00%
system.ruby.L1Cache_Controller.L0_Invalidate_Own::total        34640                      
system.ruby.L1Cache_Controller.L0_Invalidate_Else |         982     94.61%     94.61% |          56      5.39%    100.00%
system.ruby.L1Cache_Controller.L0_Invalidate_Else::total         1038                      
system.ruby.L1Cache_Controller.L1_Replacement |       59359     16.22%     16.22% |      306703     83.78%    100.00%
system.ruby.L1Cache_Controller.L1_Replacement::total       366062                      
system.ruby.L1Cache_Controller.Fwd_GETX  |           5     83.33%     83.33% |           1     16.67%    100.00%
system.ruby.L1Cache_Controller.Fwd_GETX::total            6                      
system.ruby.L1Cache_Controller.Fwd_GETS  |        3993     99.50%     99.50% |          20      0.50%    100.00%
system.ruby.L1Cache_Controller.Fwd_GETS::total         4013                      
system.ruby.L1Cache_Controller.Data      |           0      0.00%      0.00% |           3    100.00%    100.00%
system.ruby.L1Cache_Controller.Data::total            3                      
system.ruby.L1Cache_Controller.Data_Exclusive |        2018      0.69%      0.69% |      290119     99.31%    100.00%
system.ruby.L1Cache_Controller.Data_Exclusive::total       292137                      
system.ruby.L1Cache_Controller.DataS_fromL1 |          20      0.50%      0.50% |        3993     99.50%    100.00%
system.ruby.L1Cache_Controller.DataS_fromL1::total         4013                      
system.ruby.L1Cache_Controller.Data_all_Acks |       61585     78.68%     78.68% |       16686     21.32%    100.00%
system.ruby.L1Cache_Controller.Data_all_Acks::total        78271                      
system.ruby.L1Cache_Controller.L0_Ack    |         724      4.28%      4.28% |       16202     95.72%    100.00%
system.ruby.L1Cache_Controller.L0_Ack::total        16926                      
system.ruby.L1Cache_Controller.Ack       |          23      0.58%      0.58% |        3947     99.42%    100.00%
system.ruby.L1Cache_Controller.Ack::total         3970                      
system.ruby.L1Cache_Controller.Ack_all   |          23      0.58%      0.58% |        3950     99.42%    100.00%
system.ruby.L1Cache_Controller.Ack_all::total         3973                      
system.ruby.L1Cache_Controller.WB_Ack    |       58874     16.80%     16.80% |      291620     83.20%    100.00%
system.ruby.L1Cache_Controller.WB_Ack::total       350494                      
system.ruby.L1Cache_Controller.NP.Load   |        2033      0.65%      0.65% |      309179     99.35%    100.00%
system.ruby.L1Cache_Controller.NP.Load::total       311212                      
system.ruby.L1Cache_Controller.NP.Store  |       61585     97.43%     97.43% |        1622      2.57%    100.00%
system.ruby.L1Cache_Controller.NP.Store::total        63207                      
system.ruby.L1Cache_Controller.NP.Inv    |         485     98.98%     98.98% |           5      1.02%    100.00%
system.ruby.L1Cache_Controller.NP.Inv::total          490                      
system.ruby.L1Cache_Controller.I.Load    |           5    100.00%    100.00% |           0      0.00%    100.00%
system.ruby.L1Cache_Controller.I.Load::total            5                      
system.ruby.L1Cache_Controller.S.Load    |           5      2.07%      2.07% |         237     97.93%    100.00%
system.ruby.L1Cache_Controller.S.Load::total          242                      
system.ruby.L1Cache_Controller.S.Store   |          23      0.58%      0.58% |        3946     99.42%    100.00%
system.ruby.L1Cache_Controller.S.Store::total         3969                      
system.ruby.L1Cache_Controller.S.L0_Invalidate_Own |           0      0.00%      0.00% |       15081    100.00%    100.00%
system.ruby.L1Cache_Controller.S.L0_Invalidate_Own::total        15081                      
system.ruby.L1Cache_Controller.S.L0_Invalidate_Else |           8     50.00%     50.00% |           8     50.00%    100.00%
system.ruby.L1Cache_Controller.S.L0_Invalidate_Else::total           16                      
system.ruby.L1Cache_Controller.SS.Load   |          23     82.14%     82.14% |           5     17.86%    100.00%
system.ruby.L1Cache_Controller.SS.Load::total           28                      
system.ruby.L1Cache_Controller.SS.Store  |           0      0.00%      0.00% |           1    100.00%    100.00%
system.ruby.L1Cache_Controller.SS.Store::total            1                      
system.ruby.L1Cache_Controller.SS.Inv    |        3465     99.48%     99.48% |          18      0.52%    100.00%
system.ruby.L1Cache_Controller.SS.Inv::total         3483                      
system.ruby.L1Cache_Controller.SS.L1_Replacement |         485      3.12%      3.12% |       15083     96.88%    100.00%
system.ruby.L1Cache_Controller.SS.L1_Replacement::total        15568                      
system.ruby.L1Cache_Controller.E.WriteBack |         887      0.31%      0.31% |      288174     99.69%    100.00%
system.ruby.L1Cache_Controller.E.WriteBack::total       289061                      
system.ruby.L1Cache_Controller.E.L0_Invalidate_Own |         691     32.58%     32.58% |        1430     67.42%    100.00%
system.ruby.L1Cache_Controller.E.L0_Invalidate_Own::total         2121                      
system.ruby.L1Cache_Controller.E.L0_Invalidate_Else |          18     66.67%     66.67% |           9     33.33%    100.00%
system.ruby.L1Cache_Controller.E.L0_Invalidate_Else::total           27                      
system.ruby.L1Cache_Controller.EE.L1_Replacement |         657     37.39%     37.39% |        1100     62.61%    100.00%
system.ruby.L1Cache_Controller.EE.L1_Replacement::total         1757                      
system.ruby.L1Cache_Controller.EE.Fwd_GETS |          16     84.21%     84.21% |           3     15.79%    100.00%
system.ruby.L1Cache_Controller.EE.Fwd_GETS::total           19                      
system.ruby.L1Cache_Controller.M.WriteBack |       66433     18.44%     18.44% |      293767     81.56%    100.00%
system.ruby.L1Cache_Controller.M.WriteBack::total       360200                      
system.ruby.L1Cache_Controller.M.L0_Invalidate_Own |          70     59.32%     59.32% |          48     40.68%    100.00%
system.ruby.L1Cache_Controller.M.L0_Invalidate_Own::total          118                      
system.ruby.L1Cache_Controller.M.L0_Invalidate_Else |         465     97.69%     97.69% |          11      2.31%    100.00%
system.ruby.L1Cache_Controller.M.L0_Invalidate_Else::total          476                      
system.ruby.L1Cache_Controller.MM.Load   |        3362      1.15%      1.15% |      288191     98.85%    100.00%
system.ruby.L1Cache_Controller.MM.Load::total       291553                      
system.ruby.L1Cache_Controller.MM.Store  |        2174     96.88%     96.88% |          70      3.12%    100.00%
system.ruby.L1Cache_Controller.MM.Store::total         2244                      
system.ruby.L1Cache_Controller.MM.L1_Replacement |       58217     16.69%     16.69% |      290520     83.31%    100.00%
system.ruby.L1Cache_Controller.MM.L1_Replacement::total       348737                      
system.ruby.L1Cache_Controller.MM.Fwd_GETX |           5     83.33%     83.33% |           1     16.67%    100.00%
system.ruby.L1Cache_Controller.MM.Fwd_GETX::total            6                      
system.ruby.L1Cache_Controller.MM.Fwd_GETS |        3977     99.57%     99.57% |          17      0.43%    100.00%
system.ruby.L1Cache_Controller.MM.Fwd_GETS::total         3994                      
system.ruby.L1Cache_Controller.IS.Data_Exclusive |        2018      0.69%      0.69% |      290119     99.31%    100.00%
system.ruby.L1Cache_Controller.IS.Data_Exclusive::total       292137                      
system.ruby.L1Cache_Controller.IS.DataS_fromL1 |          20      0.50%      0.50% |        3993     99.50%    100.00%
system.ruby.L1Cache_Controller.IS.DataS_fromL1::total         4013                      
system.ruby.L1Cache_Controller.IS.Data_all_Acks |           0      0.00%      0.00% |       15067    100.00%    100.00%
system.ruby.L1Cache_Controller.IS.Data_all_Acks::total        15067                      
system.ruby.L1Cache_Controller.IM.Data   |           0      0.00%      0.00% |           3    100.00%    100.00%
system.ruby.L1Cache_Controller.IM.Data::total            3                      
system.ruby.L1Cache_Controller.IM.Data_all_Acks |       61585     97.44%     97.44% |        1619      2.56%    100.00%
system.ruby.L1Cache_Controller.IM.Data_all_Acks::total        63204                      
system.ruby.L1Cache_Controller.SM.Ack    |          23      0.58%      0.58% |        3947     99.42%    100.00%
system.ruby.L1Cache_Controller.SM.Ack::total         3970                      
system.ruby.L1Cache_Controller.SM.Ack_all |          23      0.58%      0.58% |        3950     99.42%    100.00%
system.ruby.L1Cache_Controller.SM.Ack_all::total         3973                      
system.ruby.L1Cache_Controller.M_I.WB_Ack |       58874     16.80%     16.80% |      291620     83.20%    100.00%
system.ruby.L1Cache_Controller.M_I.WB_Ack::total       350494                      
system.ruby.L1Cache_Controller.S_IL0.L0_Invalidate_Own |           0      0.00%      0.00% |       15081    100.00%    100.00%
system.ruby.L1Cache_Controller.S_IL0.L0_Invalidate_Own::total        15081                      
system.ruby.L1Cache_Controller.S_IL0.L0_Invalidate_Else |           8     50.00%     50.00% |           8     50.00%    100.00%
system.ruby.L1Cache_Controller.S_IL0.L0_Invalidate_Else::total           16                      
system.ruby.L1Cache_Controller.S_IL0.L0_Ack |           8      0.05%      0.05% |       15089     99.95%    100.00%
system.ruby.L1Cache_Controller.S_IL0.L0_Ack::total        15097                      
system.ruby.L1Cache_Controller.E_IL0.L0_DataAck |          36      9.68%      9.68% |         336     90.32%    100.00%
system.ruby.L1Cache_Controller.E_IL0.L0_DataAck::total          372                      
system.ruby.L1Cache_Controller.E_IL0.L0_Invalidate_Own |         691     32.58%     32.58% |        1430     67.42%    100.00%
system.ruby.L1Cache_Controller.E_IL0.L0_Invalidate_Own::total         2121                      
system.ruby.L1Cache_Controller.E_IL0.L0_Invalidate_Else |          18     66.67%     66.67% |           9     33.33%    100.00%
system.ruby.L1Cache_Controller.E_IL0.L0_Invalidate_Else::total           27                      
system.ruby.L1Cache_Controller.E_IL0.L0_Ack |         673     37.89%     37.89% |        1103     62.11%    100.00%
system.ruby.L1Cache_Controller.E_IL0.L0_Ack::total         1776                      
system.ruby.L1Cache_Controller.M_IL0.L0_DataAck |         492     90.94%     90.94% |          49      9.06%    100.00%
system.ruby.L1Cache_Controller.M_IL0.L0_DataAck::total          541                      
system.ruby.L1Cache_Controller.M_IL0.L0_Invalidate_Own |          70     59.32%     59.32% |          48     40.68%    100.00%
system.ruby.L1Cache_Controller.M_IL0.L0_Invalidate_Own::total          118                      
system.ruby.L1Cache_Controller.M_IL0.L0_Invalidate_Else |         465     97.69%     97.69% |          11      2.31%    100.00%
system.ruby.L1Cache_Controller.M_IL0.L0_Invalidate_Else::total          476                      
system.ruby.L1Cache_Controller.M_IL0.L0_Ack |          43     81.13%     81.13% |          10     18.87%    100.00%
system.ruby.L1Cache_Controller.M_IL0.L0_Ack::total           53                      
system.ruby.L2Cache_Controller.L1_GETS         311217      0.00%      0.00%
system.ruby.L2Cache_Controller.L1_GETX          63207      0.00%      0.00%
system.ruby.L2Cache_Controller.L1_UPGRADE         3970      0.00%      0.00%
system.ruby.L2Cache_Controller.L1_PUTX         350494      0.00%      0.00%
system.ruby.L2Cache_Controller.Mem_Data         66962      0.00%      0.00%
system.ruby.L2Cache_Controller.WB_Data           4012      0.00%      0.00%
system.ruby.L2Cache_Controller.WB_Data_clean            1      0.00%      0.00%
system.ruby.L2Cache_Controller.Unblock           4013      0.00%      0.00%
system.ruby.L2Cache_Controller.Exclusive_Unblock       359314      0.00%      0.00%
system.ruby.L2Cache_Controller.NP.L1_GETS         4663      0.00%      0.00%
system.ruby.L2Cache_Controller.NP.L1_GETX        62299      0.00%      0.00%
system.ruby.L2Cache_Controller.SS.L1_GETS        15067      0.00%      0.00%
system.ruby.L2Cache_Controller.SS.L1_GETX            3      0.00%      0.00%
system.ruby.L2Cache_Controller.SS.L1_UPGRADE         3970      0.00%      0.00%
system.ruby.L2Cache_Controller.M.L1_GETS       287474      0.00%      0.00%
system.ruby.L2Cache_Controller.M.L1_GETX          899      0.00%      0.00%
system.ruby.L2Cache_Controller.MT.L1_GETS         4013      0.00%      0.00%
system.ruby.L2Cache_Controller.MT.L1_GETX            6      0.00%      0.00%
system.ruby.L2Cache_Controller.MT.L1_PUTX       350494      0.00%      0.00%
system.ruby.L2Cache_Controller.ISS.Mem_Data         4663      0.00%      0.00%
system.ruby.L2Cache_Controller.IM.Mem_Data        62299      0.00%      0.00%
system.ruby.L2Cache_Controller.SS_MB.Exclusive_Unblock         3973      0.00%      0.00%
system.ruby.L2Cache_Controller.MT_MB.Exclusive_Unblock       355341      0.00%      0.00%
system.ruby.L2Cache_Controller.MT_IIB.WB_Data         4012      0.00%      0.00%
system.ruby.L2Cache_Controller.MT_IIB.WB_Data_clean            1      0.00%      0.00%
system.ruby.L2Cache_Controller.MT_SB.Unblock         4013      0.00%      0.00%

---------- End Simulation Statistics   ----------
