
---------- Begin Simulation Statistics ----------
sim_seconds                                  0.011247                       # Number of seconds simulated
sim_ticks                                 11246744500                       # Number of ticks simulated
final_tick                                11246744500                       # Number of ticks from beginning of simulation (restored from checkpoints and never reset)
sim_freq                                 1000000000000                       # Frequency of simulated ticks
host_inst_rate                                 145610                       # Simulator instruction rate (inst/s)
host_op_rate                                   329580                       # Simulator op (including micro ops) rate (op/s)
host_tick_rate                              202741906                       # Simulator tick rate (ticks/s)
host_mem_usage                                 759160                       # Number of bytes of host memory used
host_seconds                                    55.47                       # Real time elapsed on the host
sim_insts                                     8077449                       # Number of instructions simulated
sim_ops                                      18282856                       # Number of ops (including micro ops) simulated
system.voltage_domain.voltage                       1                       # Voltage in Volts
system.clk_domain.clock                          1000                       # Clock period in ticks
system.mem_ctrls.bytes_read::ruby.dir_cntrl0       403136                       # Number of bytes read from this memory
system.mem_ctrls.bytes_read::total             403136                       # Number of bytes read from this memory
system.mem_ctrls.num_reads::ruby.dir_cntrl0         6299                       # Number of read requests responded to by this memory
system.mem_ctrls.num_reads::total                6299                       # Number of read requests responded to by this memory
system.mem_ctrls.bw_read::ruby.dir_cntrl0     35844684                       # Total read bandwidth from this memory (bytes/s)
system.mem_ctrls.bw_read::total              35844684                       # Total read bandwidth from this memory (bytes/s)
system.mem_ctrls.bw_total::ruby.dir_cntrl0     35844684                       # Total bandwidth to/from this memory (bytes/s)
system.mem_ctrls.bw_total::total             35844684                       # Total bandwidth to/from this memory (bytes/s)
system.mem_ctrls.readReqs                        6299                       # Number of read requests accepted
system.mem_ctrls.writeReqs                          0                       # Number of write requests accepted
system.mem_ctrls.readBursts                      6299                       # Number of DRAM read bursts, including those serviced by the write queue
system.mem_ctrls.writeBursts                        0                       # Number of DRAM write bursts, including those merged in the write queue
system.mem_ctrls.bytesReadDRAM                 403136                       # Total number of bytes read from DRAM
system.mem_ctrls.bytesReadWrQ                       0                       # Total number of bytes read from write queue
system.mem_ctrls.bytesWritten                       0                       # Total number of bytes written to DRAM
system.mem_ctrls.bytesReadSys                  403136                       # Total read bytes from the system interface side
system.mem_ctrls.bytesWrittenSys                    0                       # Total written bytes from the system interface side
system.mem_ctrls.servicedByWrQ                      0                       # Number of DRAM read bursts serviced by the write queue
system.mem_ctrls.mergedWrBursts                     0                       # Number of DRAM write bursts merged with an existing one
system.mem_ctrls.neitherReadNorWriteReqs            0                       # Number of requests that are neither read nor write
system.mem_ctrls.perBankRdBursts::0               343                       # Per bank write bursts
system.mem_ctrls.perBankRdBursts::1               415                       # Per bank write bursts
system.mem_ctrls.perBankRdBursts::2               394                       # Per bank write bursts
system.mem_ctrls.perBankRdBursts::3               304                       # Per bank write bursts
system.mem_ctrls.perBankRdBursts::4               423                       # Per bank write bursts
system.mem_ctrls.perBankRdBursts::5               424                       # Per bank write bursts
system.mem_ctrls.perBankRdBursts::6               412                       # Per bank write bursts
system.mem_ctrls.perBankRdBursts::7               403                       # Per bank write bursts
system.mem_ctrls.perBankRdBursts::8               298                       # Per bank write bursts
system.mem_ctrls.perBankRdBursts::9               421                       # Per bank write bursts
system.mem_ctrls.perBankRdBursts::10              502                       # Per bank write bursts
system.mem_ctrls.perBankRdBursts::11              546                       # Per bank write bursts
system.mem_ctrls.perBankRdBursts::12              465                       # Per bank write bursts
system.mem_ctrls.perBankRdBursts::13              351                       # Per bank write bursts
system.mem_ctrls.perBankRdBursts::14              297                       # Per bank write bursts
system.mem_ctrls.perBankRdBursts::15              301                       # Per bank write bursts
system.mem_ctrls.perBankWrBursts::0                 0                       # Per bank write bursts
system.mem_ctrls.perBankWrBursts::1                 0                       # Per bank write bursts
system.mem_ctrls.perBankWrBursts::2                 0                       # Per bank write bursts
system.mem_ctrls.perBankWrBursts::3                 0                       # Per bank write bursts
system.mem_ctrls.perBankWrBursts::4                 0                       # Per bank write bursts
system.mem_ctrls.perBankWrBursts::5                 0                       # Per bank write bursts
system.mem_ctrls.perBankWrBursts::6                 0                       # Per bank write bursts
system.mem_ctrls.perBankWrBursts::7                 0                       # Per bank write bursts
system.mem_ctrls.perBankWrBursts::8                 0                       # Per bank write bursts
system.mem_ctrls.perBankWrBursts::9                 0                       # Per bank write bursts
system.mem_ctrls.perBankWrBursts::10                0                       # Per bank write bursts
system.mem_ctrls.perBankWrBursts::11                0                       # Per bank write bursts
system.mem_ctrls.perBankWrBursts::12                0                       # Per bank write bursts
system.mem_ctrls.perBankWrBursts::13                0                       # Per bank write bursts
system.mem_ctrls.perBankWrBursts::14                0                       # Per bank write bursts
system.mem_ctrls.perBankWrBursts::15                0                       # Per bank write bursts
system.mem_ctrls.numRdRetry                         0                       # Number of times read queue was full causing retry
system.mem_ctrls.numWrRetry                         0                       # Number of times write queue was full causing retry
system.mem_ctrls.totGap                   11246683500                       # Total gap between requests
system.mem_ctrls.readPktSize::0                     0                       # Read request sizes (log2)
system.mem_ctrls.readPktSize::1                     0                       # Read request sizes (log2)
system.mem_ctrls.readPktSize::2                     0                       # Read request sizes (log2)
system.mem_ctrls.readPktSize::3                     0                       # Read request sizes (log2)
system.mem_ctrls.readPktSize::4                     0                       # Read request sizes (log2)
system.mem_ctrls.readPktSize::5                     0                       # Read request sizes (log2)
system.mem_ctrls.readPktSize::6                  6299                       # Read request sizes (log2)
system.mem_ctrls.writePktSize::0                    0                       # Write request sizes (log2)
system.mem_ctrls.writePktSize::1                    0                       # Write request sizes (log2)
system.mem_ctrls.writePktSize::2                    0                       # Write request sizes (log2)
system.mem_ctrls.writePktSize::3                    0                       # Write request sizes (log2)
system.mem_ctrls.writePktSize::4                    0                       # Write request sizes (log2)
system.mem_ctrls.writePktSize::5                    0                       # Write request sizes (log2)
system.mem_ctrls.writePktSize::6                    0                       # Write request sizes (log2)
system.mem_ctrls.rdQLenPdf::0                    6297                       # What read queue length does an incoming req see
system.mem_ctrls.rdQLenPdf::1                       2                       # What read queue length does an incoming req see
system.mem_ctrls.rdQLenPdf::2                       0                       # What read queue length does an incoming req see
system.mem_ctrls.rdQLenPdf::3                       0                       # What read queue length does an incoming req see
system.mem_ctrls.rdQLenPdf::4                       0                       # What read queue length does an incoming req see
system.mem_ctrls.rdQLenPdf::5                       0                       # What read queue length does an incoming req see
system.mem_ctrls.rdQLenPdf::6                       0                       # What read queue length does an incoming req see
system.mem_ctrls.rdQLenPdf::7                       0                       # What read queue length does an incoming req see
system.mem_ctrls.rdQLenPdf::8                       0                       # What read queue length does an incoming req see
system.mem_ctrls.rdQLenPdf::9                       0                       # What read queue length does an incoming req see
system.mem_ctrls.rdQLenPdf::10                      0                       # What read queue length does an incoming req see
system.mem_ctrls.rdQLenPdf::11                      0                       # What read queue length does an incoming req see
system.mem_ctrls.rdQLenPdf::12                      0                       # What read queue length does an incoming req see
system.mem_ctrls.rdQLenPdf::13                      0                       # What read queue length does an incoming req see
system.mem_ctrls.rdQLenPdf::14                      0                       # What read queue length does an incoming req see
system.mem_ctrls.rdQLenPdf::15                      0                       # What read queue length does an incoming req see
system.mem_ctrls.rdQLenPdf::16                      0                       # What read queue length does an incoming req see
system.mem_ctrls.rdQLenPdf::17                      0                       # What read queue length does an incoming req see
system.mem_ctrls.rdQLenPdf::18                      0                       # What read queue length does an incoming req see
system.mem_ctrls.rdQLenPdf::19                      0                       # What read queue length does an incoming req see
system.mem_ctrls.rdQLenPdf::20                      0                       # What read queue length does an incoming req see
system.mem_ctrls.rdQLenPdf::21                      0                       # What read queue length does an incoming req see
system.mem_ctrls.rdQLenPdf::22                      0                       # What read queue length does an incoming req see
system.mem_ctrls.rdQLenPdf::23                      0                       # What read queue length does an incoming req see
system.mem_ctrls.rdQLenPdf::24                      0                       # What read queue length does an incoming req see
system.mem_ctrls.rdQLenPdf::25                      0                       # What read queue length does an incoming req see
system.mem_ctrls.rdQLenPdf::26                      0                       # What read queue length does an incoming req see
system.mem_ctrls.rdQLenPdf::27                      0                       # What read queue length does an incoming req see
system.mem_ctrls.rdQLenPdf::28                      0                       # What read queue length does an incoming req see
system.mem_ctrls.rdQLenPdf::29                      0                       # What read queue length does an incoming req see
system.mem_ctrls.rdQLenPdf::30                      0                       # What read queue length does an incoming req see
system.mem_ctrls.rdQLenPdf::31                      0                       # What read queue length does an incoming req see
system.mem_ctrls.wrQLenPdf::0                       0                       # What write queue length does an incoming req see
system.mem_ctrls.wrQLenPdf::1                       0                       # What write queue length does an incoming req see
system.mem_ctrls.wrQLenPdf::2                       0                       # What write queue length does an incoming req see
system.mem_ctrls.wrQLenPdf::3                       0                       # What write queue length does an incoming req see
system.mem_ctrls.wrQLenPdf::4                       0                       # What write queue length does an incoming req see
system.mem_ctrls.wrQLenPdf::5                       0                       # What write queue length does an incoming req see
system.mem_ctrls.wrQLenPdf::6                       0                       # What write queue length does an incoming req see
system.mem_ctrls.wrQLenPdf::7                       0                       # What write queue length does an incoming req see
system.mem_ctrls.wrQLenPdf::8                       0                       # What write queue length does an incoming req see
system.mem_ctrls.wrQLenPdf::9                       0                       # What write queue length does an incoming req see
system.mem_ctrls.wrQLenPdf::10                      0                       # What write queue length does an incoming req see
system.mem_ctrls.wrQLenPdf::11                      0                       # What write queue length does an incoming req see
system.mem_ctrls.wrQLenPdf::12                      0                       # What write queue length does an incoming req see
system.mem_ctrls.wrQLenPdf::13                      0                       # What write queue length does an incoming req see
system.mem_ctrls.wrQLenPdf::14                      0                       # What write queue length does an incoming req see
system.mem_ctrls.wrQLenPdf::15                      0                       # What write queue length does an incoming req see
system.mem_ctrls.wrQLenPdf::16                      0                       # What write queue length does an incoming req see
system.mem_ctrls.wrQLenPdf::17                      0                       # What write queue length does an incoming req see
system.mem_ctrls.wrQLenPdf::18                      0                       # What write queue length does an incoming req see
system.mem_ctrls.wrQLenPdf::19                      0                       # What write queue length does an incoming req see
system.mem_ctrls.wrQLenPdf::20                      0                       # What write queue length does an incoming req see
system.mem_ctrls.wrQLenPdf::21                      0                       # What write queue length does an incoming req see
system.mem_ctrls.wrQLenPdf::22                      0                       # What write queue length does an incoming req see
system.mem_ctrls.wrQLenPdf::23                      0                       # What write queue length does an incoming req see
system.mem_ctrls.wrQLenPdf::24                      0                       # What write queue length does an incoming req see
system.mem_ctrls.wrQLenPdf::25                      0                       # What write queue length does an incoming req see
system.mem_ctrls.wrQLenPdf::26                      0                       # What write queue length does an incoming req see
system.mem_ctrls.wrQLenPdf::27                      0                       # What write queue length does an incoming req see
system.mem_ctrls.wrQLenPdf::28                      0                       # What write queue length does an incoming req see
system.mem_ctrls.wrQLenPdf::29                      0                       # What write queue length does an incoming req see
system.mem_ctrls.wrQLenPdf::30                      0                       # What write queue length does an incoming req see
system.mem_ctrls.wrQLenPdf::31                      0                       # What write queue length does an incoming req see
system.mem_ctrls.wrQLenPdf::32                      0                       # What write queue length does an incoming req see
system.mem_ctrls.wrQLenPdf::33                      0                       # What write queue length does an incoming req see
system.mem_ctrls.wrQLenPdf::34                      0                       # What write queue length does an incoming req see
system.mem_ctrls.wrQLenPdf::35                      0                       # What write queue length does an incoming req see
system.mem_ctrls.wrQLenPdf::36                      0                       # What write queue length does an incoming req see
system.mem_ctrls.wrQLenPdf::37                      0                       # What write queue length does an incoming req see
system.mem_ctrls.wrQLenPdf::38                      0                       # What write queue length does an incoming req see
system.mem_ctrls.wrQLenPdf::39                      0                       # What write queue length does an incoming req see
system.mem_ctrls.wrQLenPdf::40                      0                       # What write queue length does an incoming req see
system.mem_ctrls.wrQLenPdf::41                      0                       # What write queue length does an incoming req see
system.mem_ctrls.wrQLenPdf::42                      0                       # What write queue length does an incoming req see
system.mem_ctrls.wrQLenPdf::43                      0                       # What write queue length does an incoming req see
system.mem_ctrls.wrQLenPdf::44                      0                       # What write queue length does an incoming req see
system.mem_ctrls.wrQLenPdf::45                      0                       # What write queue length does an incoming req see
system.mem_ctrls.wrQLenPdf::46                      0                       # What write queue length does an incoming req see
system.mem_ctrls.wrQLenPdf::47                      0                       # What write queue length does an incoming req see
system.mem_ctrls.wrQLenPdf::48                      0                       # What write queue length does an incoming req see
system.mem_ctrls.wrQLenPdf::49                      0                       # What write queue length does an incoming req see
system.mem_ctrls.wrQLenPdf::50                      0                       # What write queue length does an incoming req see
system.mem_ctrls.wrQLenPdf::51                      0                       # What write queue length does an incoming req see
system.mem_ctrls.wrQLenPdf::52                      0                       # What write queue length does an incoming req see
system.mem_ctrls.wrQLenPdf::53                      0                       # What write queue length does an incoming req see
system.mem_ctrls.wrQLenPdf::54                      0                       # What write queue length does an incoming req see
system.mem_ctrls.wrQLenPdf::55                      0                       # What write queue length does an incoming req see
system.mem_ctrls.wrQLenPdf::56                      0                       # What write queue length does an incoming req see
system.mem_ctrls.wrQLenPdf::57                      0                       # What write queue length does an incoming req see
system.mem_ctrls.wrQLenPdf::58                      0                       # What write queue length does an incoming req see
system.mem_ctrls.wrQLenPdf::59                      0                       # What write queue length does an incoming req see
system.mem_ctrls.wrQLenPdf::60                      0                       # What write queue length does an incoming req see
system.mem_ctrls.wrQLenPdf::61                      0                       # What write queue length does an incoming req see
system.mem_ctrls.wrQLenPdf::62                      0                       # What write queue length does an incoming req see
system.mem_ctrls.wrQLenPdf::63                      0                       # What write queue length does an incoming req see
system.mem_ctrls.bytesPerActivate::samples         1499                       # Bytes accessed per row activation
system.mem_ctrls.bytesPerActivate::mean    267.527685                       # Bytes accessed per row activation
system.mem_ctrls.bytesPerActivate::gmean   224.282351                       # Bytes accessed per row activation
system.mem_ctrls.bytesPerActivate::stdev   173.722800                       # Bytes accessed per row activation
system.mem_ctrls.bytesPerActivate::0-127          200     13.34%     13.34% # Bytes accessed per row activation
system.mem_ctrls.bytesPerActivate::128-255          199     13.28%     26.62% # Bytes accessed per row activation
system.mem_ctrls.bytesPerActivate::256-383          949     63.31%     89.93% # Bytes accessed per row activation
system.mem_ctrls.bytesPerActivate::384-511           52      3.47%     93.40% # Bytes accessed per row activation
system.mem_ctrls.bytesPerActivate::512-639           27      1.80%     95.20% # Bytes accessed per row activation
system.mem_ctrls.bytesPerActivate::640-767           12      0.80%     96.00% # Bytes accessed per row activation
system.mem_ctrls.bytesPerActivate::768-895           16      1.07%     97.06% # Bytes accessed per row activation
system.mem_ctrls.bytesPerActivate::896-1023            9      0.60%     97.67% # Bytes accessed per row activation
system.mem_ctrls.bytesPerActivate::1024-1151           35      2.33%    100.00% # Bytes accessed per row activation
system.mem_ctrls.bytesPerActivate::total         1499                       # Bytes accessed per row activation
system.mem_ctrls.totQLat                     53678000                       # Total ticks spent queuing
system.mem_ctrls.totMemAccLat               171784250                       # Total ticks spent from burst creation until serviced by the DRAM
system.mem_ctrls.totBusLat                   31495000                       # Total ticks spent in databus transfers
system.mem_ctrls.avgQLat                      8521.67                       # Average queueing delay per DRAM burst
system.mem_ctrls.avgBusLat                    5000.00                       # Average bus latency per DRAM burst
system.mem_ctrls.avgMemAccLat                27271.67                       # Average memory access latency per DRAM burst
system.mem_ctrls.avgRdBW                        35.84                       # Average DRAM read bandwidth in MiByte/s
system.mem_ctrls.avgWrBW                         0.00                       # Average achieved write bandwidth in MiByte/s
system.mem_ctrls.avgRdBWSys                     35.84                       # Average system read bandwidth in MiByte/s
system.mem_ctrls.avgWrBWSys                      0.00                       # Average system write bandwidth in MiByte/s
system.mem_ctrls.peakBW                      12800.00                       # Theoretical peak bandwidth in MiByte/s
system.mem_ctrls.busUtil                         0.28                       # Data bus utilization in percentage
system.mem_ctrls.busUtilRead                     0.28                       # Data bus utilization in percentage for reads
system.mem_ctrls.busUtilWrite                    0.00                       # Data bus utilization in percentage for writes
system.mem_ctrls.avgRdQLen                       1.00                       # Average read queue length when enqueuing
system.mem_ctrls.avgWrQLen                       0.00                       # Average write queue length when enqueuing
system.mem_ctrls.readRowHits                     4790                       # Number of row buffer hits during reads
system.mem_ctrls.writeRowHits                       0                       # Number of row buffer hits during writes
system.mem_ctrls.readRowHitRate                 76.04                       # Row buffer hit rate for reads
system.mem_ctrls.writeRowHitRate                  nan                       # Row buffer hit rate for writes
system.mem_ctrls.avgGap                    1785471.27                       # Average gap between requests
system.mem_ctrls.pageHitRate                    76.04                       # Row buffer hit rate, read and write combined
system.mem_ctrls_0.actEnergy                  6063120                       # Energy for activate commands per rank (pJ)
system.mem_ctrls_0.preEnergy                  3308250                       # Energy for precharge commands per rank (pJ)
system.mem_ctrls_0.readEnergy                24250200                       # Energy for read commands per rank (pJ)
system.mem_ctrls_0.writeEnergy                      0                       # Energy for write commands per rank (pJ)
system.mem_ctrls_0.refreshEnergy            734360640                       # Energy for refresh commands per rank (pJ)
system.mem_ctrls_0.actBackEnergy           2687656590                       # Energy for active background per rank (pJ)
system.mem_ctrls_0.preBackEnergy           4388569500                       # Energy for precharge background per rank (pJ)
system.mem_ctrls_0.totalEnergy             7844208300                       # Total energy per rank (pJ)
system.mem_ctrls_0.averagePower            697.659541                       # Core power per rank (mW)
system.mem_ctrls_0.memoryStateTime::IDLE   7286817750                       # Time in different power states
system.mem_ctrls_0.memoryStateTime::REF     375440000                       # Time in different power states
system.mem_ctrls_0.memoryStateTime::PRE_PDN            0                       # Time in different power states
system.mem_ctrls_0.memoryStateTime::ACT    3581361000                       # Time in different power states
system.mem_ctrls_0.memoryStateTime::ACT_PDN            0                       # Time in different power states
system.mem_ctrls_1.actEnergy                  5261760                       # Energy for activate commands per rank (pJ)
system.mem_ctrls_1.preEnergy                  2871000                       # Energy for precharge commands per rank (pJ)
system.mem_ctrls_1.readEnergy                24616800                       # Energy for read commands per rank (pJ)
system.mem_ctrls_1.writeEnergy                      0                       # Energy for write commands per rank (pJ)
system.mem_ctrls_1.refreshEnergy            734360640                       # Energy for refresh commands per rank (pJ)
system.mem_ctrls_1.actBackEnergy           2685720870                       # Energy for active background per rank (pJ)
system.mem_ctrls_1.preBackEnergy           4390259250                       # Energy for precharge background per rank (pJ)
system.mem_ctrls_1.totalEnergy             7843090320                       # Total energy per rank (pJ)
system.mem_ctrls_1.averagePower            697.560961                       # Core power per rank (mW)
system.mem_ctrls_1.memoryStateTime::IDLE   7290139750                       # Time in different power states
system.mem_ctrls_1.memoryStateTime::REF     375440000                       # Time in different power states
system.mem_ctrls_1.memoryStateTime::PRE_PDN            0                       # Time in different power states
system.mem_ctrls_1.memoryStateTime::ACT    3578724750                       # Time in different power states
system.mem_ctrls_1.memoryStateTime::ACT_PDN            0                       # Time in different power states
system.cpu_voltage_domain.voltage                   1                       # Voltage in Volts
system.cpu_clk_domain.clock                       500                       # Clock period in ticks
system.cpu0.apic_clk_domain.clock                8000                       # Clock period in ticks
system.cpu0.workload.num_syscalls                 140                       # Number of system calls
system.cpu0.numCycles                        22493489                       # number of cpu cycles simulated
system.cpu0.numWorkItemsStarted                     0                       # number of work items this cpu started
system.cpu0.numWorkItemsCompleted                   0                       # number of work items this cpu completed
system.cpu0.committedInsts                    6194013                       # Number of instructions committed
system.cpu0.committedOps                     14591103                       # Number of ops (including micro ops) committed
system.cpu0.num_int_alu_accesses             13946512                       # Number of integer alu accesses
system.cpu0.num_fp_alu_accesses                307930                       # Number of float alu accesses
system.cpu0.num_func_calls                     397128                       # number of times a function call or return occured
system.cpu0.num_conditional_control_insts      1288895                       # number of instructions that are conditional controls
system.cpu0.num_int_insts                    13946512                       # number of integer instructions
system.cpu0.num_fp_insts                       307930                       # number of float instructions
system.cpu0.num_int_register_reads           29763774                       # number of times the integer registers were read
system.cpu0.num_int_register_writes          13059782                       # number of times the integer registers were written
system.cpu0.num_fp_register_reads              493490                       # number of times the floating registers were read
system.cpu0.num_fp_register_writes             245368                       # number of times the floating registers were written
system.cpu0.num_cc_register_reads            11632738                       # number of times the CC registers were read
system.cpu0.num_cc_register_writes            4323095                       # number of times the CC registers were written
system.cpu0.num_mem_refs                      2982385                       # number of memory refs
system.cpu0.num_load_insts                    1896502                       # Number of load instructions
system.cpu0.num_store_insts                   1085883                       # Number of store instructions
system.cpu0.num_idle_cycles                  0.002000                       # Number of idle cycles
system.cpu0.num_busy_cycles              22493488.998000                       # Number of busy cycles
system.cpu0.not_idle_fraction                1.000000                       # Percentage of non-idle cycles
system.cpu0.idle_fraction                    0.000000                       # Percentage of idle cycles
system.cpu0.Branches                          1881870                       # Number of branches fetched
system.cpu0.op_class::No_OpClass               199193      1.37%      1.37% # Class of executed instruction
system.cpu0.op_class::IntAlu                 10193410     69.86%     71.23% # Class of executed instruction
system.cpu0.op_class::IntMult                     655      0.00%     71.23% # Class of executed instruction
system.cpu0.op_class::IntDiv                   971083      6.66%     77.89% # Class of executed instruction
system.cpu0.op_class::FloatAdd                 244377      1.67%     79.56% # Class of executed instruction
system.cpu0.op_class::FloatCmp                      0      0.00%     79.56% # Class of executed instruction
system.cpu0.op_class::FloatCvt                      0      0.00%     79.56% # Class of executed instruction
system.cpu0.op_class::FloatMult                     0      0.00%     79.56% # Class of executed instruction
system.cpu0.op_class::FloatDiv                      0      0.00%     79.56% # Class of executed instruction
system.cpu0.op_class::FloatSqrt                     0      0.00%     79.56% # Class of executed instruction
system.cpu0.op_class::SimdAdd                       0      0.00%     79.56% # Class of executed instruction
system.cpu0.op_class::SimdAddAcc                    0      0.00%     79.56% # Class of executed instruction
system.cpu0.op_class::SimdAlu                       0      0.00%     79.56% # Class of executed instruction
system.cpu0.op_class::SimdCmp                       0      0.00%     79.56% # Class of executed instruction
system.cpu0.op_class::SimdCvt                       0      0.00%     79.56% # Class of executed instruction
system.cpu0.op_class::SimdMisc                      0      0.00%     79.56% # Class of executed instruction
system.cpu0.op_class::SimdMult                      0      0.00%     79.56% # Class of executed instruction
system.cpu0.op_class::SimdMultAcc                   0      0.00%     79.56% # Class of executed instruction
system.cpu0.op_class::SimdShift                     0      0.00%     79.56% # Class of executed instruction
system.cpu0.op_class::SimdShiftAcc                  0      0.00%     79.56% # Class of executed instruction
system.cpu0.op_class::SimdSqrt                      0      0.00%     79.56% # Class of executed instruction
system.cpu0.op_class::SimdFloatAdd                  0      0.00%     79.56% # Class of executed instruction
system.cpu0.op_class::SimdFloatAlu                  0      0.00%     79.56% # Class of executed instruction
system.cpu0.op_class::SimdFloatCmp                  0      0.00%     79.56% # Class of executed instruction
system.cpu0.op_class::SimdFloatCvt                  0      0.00%     79.56% # Class of executed instruction
system.cpu0.op_class::SimdFloatDiv                  0      0.00%     79.56% # Class of executed instruction
system.cpu0.op_class::SimdFloatMisc                 0      0.00%     79.56% # Class of executed instruction
system.cpu0.op_class::SimdFloatMult                 0      0.00%     79.56% # Class of executed instruction
system.cpu0.op_class::SimdFloatMultAcc              0      0.00%     79.56% # Class of executed instruction
system.cpu0.op_class::SimdFloatSqrt                 0      0.00%     79.56% # Class of executed instruction
system.cpu0.op_class::MemRead                 1896502     13.00%     92.56% # Class of executed instruction
system.cpu0.op_class::MemWrite                1085883      7.44%    100.00% # Class of executed instruction
system.cpu0.op_class::IprAccess                     0      0.00%    100.00% # Class of executed instruction
system.cpu0.op_class::InstPrefetch                  0      0.00%    100.00% # Class of executed instruction
system.cpu0.op_class::total                  14591103                       # Class of executed instruction
system.cpu1.apic_clk_domain.clock                8000                       # Clock period in ticks
system.cpu1.numCycles                        22321650                       # number of cpu cycles simulated
system.cpu1.numWorkItemsStarted                     0                       # number of work items this cpu started
system.cpu1.numWorkItemsCompleted                   0                       # number of work items this cpu completed
system.cpu1.committedInsts                    1883436                       # Number of instructions committed
system.cpu1.committedOps                      3691753                       # Number of ops (including micro ops) committed
system.cpu1.num_int_alu_accesses              2931340                       # Number of integer alu accesses
system.cpu1.num_fp_alu_accesses               1742201                       # Number of float alu accesses
system.cpu1.num_func_calls                      27321                       # number of times a function call or return occured
system.cpu1.num_conditional_control_insts       200474                       # number of instructions that are conditional controls
system.cpu1.num_int_insts                     2931340                       # number of integer instructions
system.cpu1.num_fp_insts                      1742201                       # number of float instructions
system.cpu1.num_int_register_reads            5580649                       # number of times the integer registers were read
system.cpu1.num_int_register_writes           1731527                       # number of times the integer registers were written
system.cpu1.num_fp_register_reads             2457524                       # number of times the floating registers were read
system.cpu1.num_fp_register_writes            1466781                       # number of times the floating registers were written
system.cpu1.num_cc_register_reads             1216604                       # number of times the CC registers were read
system.cpu1.num_cc_register_writes            1206405                       # number of times the CC registers were written
system.cpu1.num_mem_refs                      1049668                       # number of memory refs
system.cpu1.num_load_insts                     760259                       # Number of load instructions
system.cpu1.num_store_insts                    289409                       # Number of store instructions
system.cpu1.num_idle_cycles              15028564.440223                       # Number of idle cycles
system.cpu1.num_busy_cycles              7293085.559777                       # Number of busy cycles
system.cpu1.not_idle_fraction                0.326727                       # Percentage of non-idle cycles
system.cpu1.idle_fraction                    0.673273                       # Percentage of idle cycles
system.cpu1.Branches                           243109                       # Number of branches fetched
system.cpu1.op_class::No_OpClass                    9      0.00%      0.00% # Class of executed instruction
system.cpu1.op_class::IntAlu                  1842545     49.91%     49.91% # Class of executed instruction
system.cpu1.op_class::IntMult                   39046      1.06%     50.97% # Class of executed instruction
system.cpu1.op_class::IntDiv                       63      0.00%     50.97% # Class of executed instruction
system.cpu1.op_class::FloatAdd                 760422     20.60%     71.57% # Class of executed instruction
system.cpu1.op_class::FloatCmp                      0      0.00%     71.57% # Class of executed instruction
system.cpu1.op_class::FloatCvt                      0      0.00%     71.57% # Class of executed instruction
system.cpu1.op_class::FloatMult                     0      0.00%     71.57% # Class of executed instruction
system.cpu1.op_class::FloatDiv                      0      0.00%     71.57% # Class of executed instruction
system.cpu1.op_class::FloatSqrt                     0      0.00%     71.57% # Class of executed instruction
system.cpu1.op_class::SimdAdd                       0      0.00%     71.57% # Class of executed instruction
system.cpu1.op_class::SimdAddAcc                    0      0.00%     71.57% # Class of executed instruction
system.cpu1.op_class::SimdAlu                       0      0.00%     71.57% # Class of executed instruction
system.cpu1.op_class::SimdCmp                       0      0.00%     71.57% # Class of executed instruction
system.cpu1.op_class::SimdCvt                       0      0.00%     71.57% # Class of executed instruction
system.cpu1.op_class::SimdMisc                      0      0.00%     71.57% # Class of executed instruction
system.cpu1.op_class::SimdMult                      0      0.00%     71.57% # Class of executed instruction
system.cpu1.op_class::SimdMultAcc                   0      0.00%     71.57% # Class of executed instruction
system.cpu1.op_class::SimdShift                     0      0.00%     71.57% # Class of executed instruction
system.cpu1.op_class::SimdShiftAcc                  0      0.00%     71.57% # Class of executed instruction
system.cpu1.op_class::SimdSqrt                      0      0.00%     71.57% # Class of executed instruction
system.cpu1.op_class::SimdFloatAdd                  0      0.00%     71.57% # Class of executed instruction
system.cpu1.op_class::SimdFloatAlu                  0      0.00%     71.57% # Class of executed instruction
system.cpu1.op_class::SimdFloatCmp                  0      0.00%     71.57% # Class of executed instruction
system.cpu1.op_class::SimdFloatCvt                  0      0.00%     71.57% # Class of executed instruction
system.cpu1.op_class::SimdFloatDiv                  0      0.00%     71.57% # Class of executed instruction
system.cpu1.op_class::SimdFloatMisc                 0      0.00%     71.57% # Class of executed instruction
system.cpu1.op_class::SimdFloatMult                 0      0.00%     71.57% # Class of executed instruction
system.cpu1.op_class::SimdFloatMultAcc              0      0.00%     71.57% # Class of executed instruction
system.cpu1.op_class::SimdFloatSqrt                 0      0.00%     71.57% # Class of executed instruction
system.cpu1.op_class::MemRead                  760259     20.59%     92.16% # Class of executed instruction
system.cpu1.op_class::MemWrite                 289409      7.84%    100.00% # Class of executed instruction
system.cpu1.op_class::IprAccess                     0      0.00%    100.00% # Class of executed instruction
system.cpu1.op_class::InstPrefetch                  0      0.00%    100.00% # Class of executed instruction
system.cpu1.op_class::total                   3691753                       # Class of executed instruction
system.ruby.clk_domain.clock                      500                       # Clock period in ticks
system.ruby.delayHist::bucket_size                  2                       # delay histogram for all message
system.ruby.delayHist::max_bucket                  19                       # delay histogram for all message
system.ruby.delayHist::samples                  92846                       # delay histogram for all message
system.ruby.delayHist::mean                  0.436766                       # delay histogram for all message
system.ruby.delayHist::stdev                 1.792224                       # delay histogram for all message
system.ruby.delayHist                    |       87550     94.30%     94.30% |          24      0.03%     94.32% |         563      0.61%     94.93% |           0      0.00%     94.93% |        4706      5.07%    100.00% |           1      0.00%    100.00% |           0      0.00%    100.00% |           1      0.00%    100.00% |           1      0.00%    100.00% |           0      0.00%    100.00% # delay histogram for all message
system.ruby.delayHist::total                    92846                       # delay histogram for all message
system.ruby.outstanding_req_hist::bucket_size            1                      
system.ruby.outstanding_req_hist::max_bucket            9                      
system.ruby.outstanding_req_hist::samples     14389243                      
system.ruby.outstanding_req_hist::mean       1.001497                      
system.ruby.outstanding_req_hist::gmean      1.001038                      
system.ruby.outstanding_req_hist::stdev      0.038663                      
system.ruby.outstanding_req_hist         |           0      0.00%      0.00% |    14367701     99.85%     99.85% |       21542      0.15%    100.00% |           0      0.00%    100.00% |           0      0.00%    100.00% |           0      0.00%    100.00% |           0      0.00%    100.00% |           0      0.00%    100.00% |           0      0.00%    100.00% |           0      0.00%    100.00%
system.ruby.outstanding_req_hist::total      14389243                      
system.ruby.latency_hist::bucket_size             128                      
system.ruby.latency_hist::max_bucket             1279                      
system.ruby.latency_hist::samples            14389243                      
system.ruby.latency_hist::mean               1.075520                      
system.ruby.latency_hist::gmean              1.005466                      
system.ruby.latency_hist::stdev              3.187187                      
system.ruby.latency_hist                 |    14387734     99.99%     99.99% |        1369      0.01%    100.00% |          11      0.00%    100.00% |          15      0.00%    100.00% |          62      0.00%    100.00% |          52      0.00%    100.00% |           0      0.00%    100.00% |           0      0.00%    100.00% |           0      0.00%    100.00% |           0      0.00%    100.00%
system.ruby.latency_hist::total              14389243                      
system.ruby.hit_latency_hist::bucket_size          128                      
system.ruby.hit_latency_hist::max_bucket         1279                      
system.ruby.hit_latency_hist::samples        14389243                      
system.ruby.hit_latency_hist::mean           1.075520                      
system.ruby.hit_latency_hist::gmean          1.005466                      
system.ruby.hit_latency_hist::stdev          3.187187                      
system.ruby.hit_latency_hist             |    14387734     99.99%     99.99% |        1369      0.01%    100.00% |          11      0.00%    100.00% |          15      0.00%    100.00% |          62      0.00%    100.00% |          52      0.00%    100.00% |           0      0.00%    100.00% |           0      0.00%    100.00% |           0      0.00%    100.00% |           0      0.00%    100.00%
system.ruby.hit_latency_hist::total          14389243                      
system.ruby.l0_cntrl0.Dcache.demand_hits      2977590                       # Number of cache demand hits
system.ruby.l0_cntrl0.Dcache.demand_misses         4845                       # Number of cache demand misses
system.ruby.l0_cntrl0.Dcache.demand_accesses      2982435                       # Number of cache demand accesses
system.ruby.l0_cntrl0.Icache.demand_hits      7881293                       # Number of cache demand hits
system.ruby.l0_cntrl0.Icache.demand_misses         2166                       # Number of cache demand misses
system.ruby.l0_cntrl0.Icache.demand_accesses      7883459                       # Number of cache demand accesses
system.ruby.l0_cntrl0.Zcache.demand_hits       360789                       # Number of cache demand hits
system.ruby.l0_cntrl0.Zcache.demand_misses         4332                       # Number of cache demand misses
system.ruby.l0_cntrl0.Zcache.demand_accesses       365121                       # Number of cache demand accesses
system.ruby.l0_cntrl1.Dcache.demand_hits      1049979                       # Number of cache demand hits
system.ruby.l0_cntrl1.Dcache.demand_misses        21181                       # Number of cache demand misses
system.ruby.l0_cntrl1.Dcache.demand_accesses      1071160                       # Number of cache demand accesses
system.ruby.l0_cntrl1.Icache.demand_hits      2452133                       # Number of cache demand hits
system.ruby.l0_cntrl1.Icache.demand_misses           56                       # Number of cache demand misses
system.ruby.l0_cntrl1.Icache.demand_accesses      2452189                       # Number of cache demand accesses
system.ruby.l0_cntrl1.Zcache.demand_hits       287163                       # Number of cache demand hits
system.ruby.l0_cntrl1.Zcache.demand_misses         1173                       # Number of cache demand misses
system.ruby.l0_cntrl1.Zcache.demand_accesses       288336                       # Number of cache demand accesses
system.ruby.l1_cntrl0.cache.demand_hits          1063                       # Number of cache demand hits
system.ruby.l1_cntrl0.cache.demand_misses         5948                       # Number of cache demand misses
system.ruby.l1_cntrl0.cache.demand_accesses         7011                       # Number of cache demand accesses
system.ruby.l1_cntrl0.zcache.demand_hits            8                       # Number of cache demand hits
system.ruby.l1_cntrl0.zcache.demand_misses          152                       # Number of cache demand misses
system.ruby.l1_cntrl0.zcache.demand_accesses          160                       # Number of cache demand accesses
system.ruby.l1_cntrl1.cache.demand_hits         13505                       # Number of cache demand hits
system.ruby.l1_cntrl1.cache.demand_misses         7732                       # Number of cache demand misses
system.ruby.l1_cntrl1.cache.demand_accesses        21237                       # Number of cache demand accesses
system.ruby.l1_cntrl1.zcache.demand_hits          467                       # Number of cache demand hits
system.ruby.l1_cntrl1.zcache.demand_misses          443                       # Number of cache demand misses
system.ruby.l1_cntrl1.zcache.demand_accesses          910                       # Number of cache demand accesses
system.ruby.l2_cntrl0.L2cache.demand_hits         3857                       # Number of cache demand hits
system.ruby.l2_cntrl0.L2cache.demand_misses         9823                       # Number of cache demand misses
system.ruby.l2_cntrl0.L2cache.demand_accesses        13680                       # Number of cache demand accesses
system.ruby.l2_cntrl0.ZL2cache.demand_hits            0                       # Number of cache demand hits
system.ruby.l2_cntrl0.ZL2cache.demand_misses          115                       # Number of cache demand misses
system.ruby.l2_cntrl0.ZL2cache.demand_accesses          115                       # Number of cache demand accesses
system.ruby.memctrl_clk_domain.clock             1500                       # Clock period in ticks
system.ruby.network.routers0.percent_links_utilized            0                      
system.ruby.network.routers1.percent_links_utilized            0                      
system.ruby.network.routers2.percent_links_utilized     0.164560                      
system.ruby.network.routers2.msg_count.Control::0         5948                      
system.ruby.network.routers2.msg_count.Request_Control::2         6475                      
system.ruby.network.routers2.msg_count.Response_Data::1        12855                      
system.ruby.network.routers2.msg_count.Response_Control::1         4445                      
system.ruby.network.routers2.msg_count.Response_Control::2         5947                      
system.ruby.network.routers2.msg_count.Writeback_Data::0         1024                      
system.ruby.network.routers2.msg_count.Writeback_Control::0          335                      
system.ruby.network.routers2.msg_bytes.Control::0        47584                      
system.ruby.network.routers2.msg_bytes.Request_Control::2        51800                      
system.ruby.network.routers2.msg_bytes.Response_Data::1       925560                      
system.ruby.network.routers2.msg_bytes.Response_Control::1        35560                      
system.ruby.network.routers2.msg_bytes.Response_Control::2        47576                      
system.ruby.network.routers2.msg_bytes.Writeback_Data::0        73728                      
system.ruby.network.routers2.msg_bytes.Writeback_Control::0         2680                      
system.ruby.network.routers3.percent_links_utilized     0.074157                      
system.ruby.network.routers3.msg_count.Control::0         7732                      
system.ruby.network.routers3.msg_count.Request_Control::2           89                      
system.ruby.network.routers3.msg_count.Response_Data::1         4821                      
system.ruby.network.routers3.msg_count.Response_Control::1         6242                      
system.ruby.network.routers3.msg_count.Response_Control::2         7694                      
system.ruby.network.routers3.msg_count.Writeback_Data::0          171                      
system.ruby.network.routers3.msg_count.Writeback_Control::0           37                      
system.ruby.network.routers3.msg_bytes.Control::0        61856                      
system.ruby.network.routers3.msg_bytes.Request_Control::2          712                      
system.ruby.network.routers3.msg_bytes.Response_Data::1       347112                      
system.ruby.network.routers3.msg_bytes.Response_Control::1        49936                      
system.ruby.network.routers3.msg_bytes.Response_Control::2        61552                      
system.ruby.network.routers3.msg_bytes.Writeback_Data::0        12312                      
system.ruby.network.routers3.msg_bytes.Writeback_Control::0          296                      
system.ruby.network.routers4.percent_links_utilized     0.231468                      
system.ruby.network.routers4.msg_count.Control::0        19979                      
system.ruby.network.routers4.msg_count.Request_Control::2         6564                      
system.ruby.network.routers4.msg_count.Response_Data::1        16927                      
system.ruby.network.routers4.msg_count.Response_Control::1         4607                      
system.ruby.network.routers4.msg_count.Response_Control::2        13641                      
system.ruby.network.routers4.msg_count.Writeback_Data::0         1195                      
system.ruby.network.routers4.msg_count.Writeback_Control::0          372                      
system.ruby.network.routers4.msg_bytes.Control::0       159832                      
system.ruby.network.routers4.msg_bytes.Request_Control::2        52512                      
system.ruby.network.routers4.msg_bytes.Response_Data::1      1218744                      
system.ruby.network.routers4.msg_bytes.Response_Control::1        36856                      
system.ruby.network.routers4.msg_bytes.Response_Control::2       109128                      
system.ruby.network.routers4.msg_bytes.Writeback_Data::0        86040                      
system.ruby.network.routers4.msg_bytes.Writeback_Control::0         2976                      
system.ruby.network.routers5.percent_links_utilized     0.070009                      
system.ruby.network.routers5.msg_count.Control::0         6299                      
system.ruby.network.routers5.msg_count.Response_Data::1         6299                      
system.ruby.network.routers5.msg_bytes.Control::0        50392                      
system.ruby.network.routers5.msg_bytes.Response_Data::1       453528                      
system.ruby.network.routers6.percent_links_utilized     0.090032                      
system.ruby.network.routers6.msg_count.Control::0        19979                      
system.ruby.network.routers6.msg_count.Request_Control::2         6564                      
system.ruby.network.routers6.msg_count.Response_Data::1        20451                      
system.ruby.network.routers6.msg_count.Response_Control::1         7647                      
system.ruby.network.routers6.msg_count.Response_Control::2        13641                      
system.ruby.network.routers6.msg_count.Writeback_Data::0         1195                      
system.ruby.network.routers6.msg_count.Writeback_Control::0          372                      
system.ruby.network.routers6.msg_bytes.Control::0       159832                      
system.ruby.network.routers6.msg_bytes.Request_Control::2        52512                      
system.ruby.network.routers6.msg_bytes.Response_Data::1      1472472                      
system.ruby.network.routers6.msg_bytes.Response_Control::1        61176                      
system.ruby.network.routers6.msg_bytes.Response_Control::2       109128                      
system.ruby.network.routers6.msg_bytes.Writeback_Data::0        86040                      
system.ruby.network.routers6.msg_bytes.Writeback_Control::0         2976                      
system.ruby.network.msg_count.Control           59937                      
system.ruby.network.msg_count.Request_Control        19692                      
system.ruby.network.msg_count.Response_Data        61353                      
system.ruby.network.msg_count.Response_Control        63864                      
system.ruby.network.msg_count.Writeback_Data         3585                      
system.ruby.network.msg_count.Writeback_Control         1116                      
system.ruby.network.msg_byte.Control           479496                      
system.ruby.network.msg_byte.Request_Control       157536                      
system.ruby.network.msg_byte.Response_Data      4417416                      
system.ruby.network.msg_byte.Response_Control       510912                      
system.ruby.network.msg_byte.Writeback_Data       258120                      
system.ruby.network.msg_byte.Writeback_Control         8928                      
system.ruby.network.routers0.throttle0.link_utilization            0                      
system.ruby.network.routers0.throttle1.link_utilization            0                      
system.ruby.network.routers1.throttle0.link_utilization            0                      
system.ruby.network.routers1.throttle1.link_utilization            0                      
system.ruby.network.routers2.throttle0.link_utilization     0.135693                      
system.ruby.network.routers2.throttle0.msg_count.Request_Control::2         6475                      
system.ruby.network.routers2.throttle0.msg_count.Response_Data::1         5902                      
system.ruby.network.routers2.throttle0.msg_count.Response_Control::1         1451                      
system.ruby.network.routers2.throttle0.msg_bytes.Request_Control::2        51800                      
system.ruby.network.routers2.throttle0.msg_bytes.Response_Data::1       424944                      
system.ruby.network.routers2.throttle0.msg_bytes.Response_Control::1        11608                      
system.ruby.network.routers2.throttle1.link_utilization     0.193427                      
system.ruby.network.routers2.throttle1.msg_count.Control::0         5948                      
system.ruby.network.routers2.throttle1.msg_count.Response_Data::1         6953                      
system.ruby.network.routers2.throttle1.msg_count.Response_Control::1         2994                      
system.ruby.network.routers2.throttle1.msg_count.Response_Control::2         5947                      
system.ruby.network.routers2.throttle1.msg_count.Writeback_Data::0         1024                      
system.ruby.network.routers2.throttle1.msg_count.Writeback_Control::0          335                      
system.ruby.network.routers2.throttle1.msg_bytes.Control::0        47584                      
system.ruby.network.routers2.throttle1.msg_bytes.Response_Data::1       500616                      
system.ruby.network.routers2.throttle1.msg_bytes.Response_Control::1        23952                      
system.ruby.network.routers2.throttle1.msg_bytes.Response_Control::2        47576                      
system.ruby.network.routers2.throttle1.msg_bytes.Writeback_Data::0        73728                      
system.ruby.network.routers2.throttle1.msg_bytes.Writeback_Control::0         2680                      
system.ruby.network.routers3.throttle0.link_utilization     0.108758                      
system.ruby.network.routers3.throttle0.msg_count.Request_Control::2           89                      
system.ruby.network.routers3.throttle0.msg_count.Response_Data::1         4738                      
system.ruby.network.routers3.throttle0.msg_count.Response_Control::1         6196                      
system.ruby.network.routers3.throttle0.msg_bytes.Request_Control::2          712                      
system.ruby.network.routers3.throttle0.msg_bytes.Response_Data::1       341136                      
system.ruby.network.routers3.throttle0.msg_bytes.Response_Control::1        49568                      
system.ruby.network.routers3.throttle1.link_utilization     0.039556                      
system.ruby.network.routers3.throttle1.msg_count.Control::0         7732                      
system.ruby.network.routers3.throttle1.msg_count.Response_Data::1           83                      
system.ruby.network.routers3.throttle1.msg_count.Response_Control::1           46                      
system.ruby.network.routers3.throttle1.msg_count.Response_Control::2         7694                      
system.ruby.network.routers3.throttle1.msg_count.Writeback_Data::0          171                      
system.ruby.network.routers3.throttle1.msg_count.Writeback_Control::0           37                      
system.ruby.network.routers3.throttle1.msg_bytes.Control::0        61856                      
system.ruby.network.routers3.throttle1.msg_bytes.Response_Data::1         5976                      
system.ruby.network.routers3.throttle1.msg_bytes.Response_Control::1          368                      
system.ruby.network.routers3.throttle1.msg_bytes.Response_Control::2        61552                      
system.ruby.network.routers3.throttle1.msg_bytes.Writeback_Data::0        12312                      
system.ruby.network.routers3.throttle1.msg_bytes.Writeback_Control::0          296                      
system.ruby.network.routers4.throttle0.link_utilization     0.281742                      
system.ruby.network.routers4.throttle0.msg_count.Control::0        13680                      
system.ruby.network.routers4.throttle0.msg_count.Response_Data::1         9811                      
system.ruby.network.routers4.throttle0.msg_count.Response_Control::2        13641                      
system.ruby.network.routers4.throttle0.msg_count.Writeback_Data::0         1195                      
system.ruby.network.routers4.throttle0.msg_count.Writeback_Control::0          372                      
system.ruby.network.routers4.throttle0.msg_bytes.Control::0       109440                      
system.ruby.network.routers4.throttle0.msg_bytes.Response_Data::1       706392                      
system.ruby.network.routers4.throttle0.msg_bytes.Response_Control::2       109128                      
system.ruby.network.routers4.throttle0.msg_bytes.Writeback_Data::0        86040                      
system.ruby.network.routers4.throttle0.msg_bytes.Writeback_Control::0         2976                      
system.ruby.network.routers4.throttle1.link_utilization     0.181195                      
system.ruby.network.routers4.throttle1.msg_count.Control::0         6299                      
system.ruby.network.routers4.throttle1.msg_count.Request_Control::2         6564                      
system.ruby.network.routers4.throttle1.msg_count.Response_Data::1         7116                      
system.ruby.network.routers4.throttle1.msg_count.Response_Control::1         4607                      
system.ruby.network.routers4.throttle1.msg_bytes.Control::0        50392                      
system.ruby.network.routers4.throttle1.msg_bytes.Request_Control::2        52512                      
system.ruby.network.routers4.throttle1.msg_bytes.Response_Data::1       512352                      
system.ruby.network.routers4.throttle1.msg_bytes.Response_Control::1        36856                      
system.ruby.network.routers5.throttle0.link_utilization     0.014002                      
system.ruby.network.routers5.throttle0.msg_count.Control::0         6299                      
system.ruby.network.routers5.throttle0.msg_bytes.Control::0        50392                      
system.ruby.network.routers5.throttle1.link_utilization     0.126016                      
system.ruby.network.routers5.throttle1.msg_count.Response_Data::1         6299                      
system.ruby.network.routers5.throttle1.msg_bytes.Response_Data::1       453528                      
system.ruby.network.routers6.throttle0.link_utilization            0                      
system.ruby.network.routers6.throttle1.link_utilization            0                      
system.ruby.network.routers6.throttle2.link_utilization     0.135693                      
system.ruby.network.routers6.throttle2.msg_count.Request_Control::2         6475                      
system.ruby.network.routers6.throttle2.msg_count.Response_Data::1         5902                      
system.ruby.network.routers6.throttle2.msg_count.Response_Control::1         1451                      
system.ruby.network.routers6.throttle2.msg_bytes.Request_Control::2        51800                      
system.ruby.network.routers6.throttle2.msg_bytes.Response_Data::1       424944                      
system.ruby.network.routers6.throttle2.msg_bytes.Response_Control::1        11608                      
system.ruby.network.routers6.throttle3.link_utilization     0.108758                      
system.ruby.network.routers6.throttle3.msg_count.Request_Control::2           89                      
system.ruby.network.routers6.throttle3.msg_count.Response_Data::1         4738                      
system.ruby.network.routers6.throttle3.msg_count.Response_Control::1         6196                      
system.ruby.network.routers6.throttle3.msg_bytes.Request_Control::2          712                      
system.ruby.network.routers6.throttle3.msg_bytes.Response_Data::1       341136                      
system.ruby.network.routers6.throttle3.msg_bytes.Response_Control::1        49568                      
system.ruby.network.routers6.throttle4.link_utilization     0.281742                      
system.ruby.network.routers6.throttle4.msg_count.Control::0        13680                      
system.ruby.network.routers6.throttle4.msg_count.Response_Data::1         9811                      
system.ruby.network.routers6.throttle4.msg_count.Response_Control::2        13641                      
system.ruby.network.routers6.throttle4.msg_count.Writeback_Data::0         1195                      
system.ruby.network.routers6.throttle4.msg_count.Writeback_Control::0          372                      
system.ruby.network.routers6.throttle4.msg_bytes.Control::0       109440                      
system.ruby.network.routers6.throttle4.msg_bytes.Response_Data::1       706392                      
system.ruby.network.routers6.throttle4.msg_bytes.Response_Control::2       109128                      
system.ruby.network.routers6.throttle4.msg_bytes.Writeback_Data::0        86040                      
system.ruby.network.routers6.throttle4.msg_bytes.Writeback_Control::0         2976                      
system.ruby.network.routers6.throttle5.link_utilization     0.014002                      
system.ruby.network.routers6.throttle5.msg_count.Control::0         6299                      
system.ruby.network.routers6.throttle5.msg_bytes.Control::0        50392                      
system.ruby.delayVCHist.vnet_0::bucket_size            2                       # delay histogram for vnet_0
system.ruby.delayVCHist.vnet_0::max_bucket           19                       # delay histogram for vnet_0
system.ruby.delayVCHist.vnet_0::samples         28888                       # delay histogram for vnet_0
system.ruby.delayVCHist.vnet_0::mean         0.333218                       # delay histogram for vnet_0
system.ruby.delayVCHist.vnet_0::stdev        1.596857                       # delay histogram for vnet_0
system.ruby.delayVCHist.vnet_0           |       27668     95.78%     95.78% |          24      0.08%     95.86% |           0      0.00%     95.86% |           0      0.00%     95.86% |        1194      4.13%     99.99% |           1      0.00%    100.00% |           0      0.00%    100.00% |           0      0.00%    100.00% |           1      0.00%    100.00% |           0      0.00%    100.00% # delay histogram for vnet_0
system.ruby.delayVCHist.vnet_0::total           28888                       # delay histogram for vnet_0
system.ruby.delayVCHist.vnet_1::bucket_size            1                       # delay histogram for vnet_1
system.ruby.delayVCHist.vnet_1::max_bucket            9                       # delay histogram for vnet_1
system.ruby.delayVCHist.vnet_1::samples         56346                       # delay histogram for vnet_1
system.ruby.delayVCHist.vnet_1::mean         0.498633                       # delay histogram for vnet_1
system.ruby.delayVCHist.vnet_1::stdev        1.934037                       # delay histogram for vnet_1
system.ruby.delayVCHist.vnet_1           |       52834     93.77%     93.77% |           0      0.00%     93.77% |           0      0.00%     93.77% |           0      0.00%     93.77% |           0      0.00%     93.77% |           0      0.00%     93.77% |           0      0.00%     93.77% |           0      0.00%     93.77% |        3512      6.23%    100.00% |           0      0.00%    100.00% # delay histogram for vnet_1
system.ruby.delayVCHist.vnet_1::total           56346                       # delay histogram for vnet_1
system.ruby.delayVCHist.vnet_2::bucket_size            2                       # delay histogram for vnet_2
system.ruby.delayVCHist.vnet_2::max_bucket           19                       # delay histogram for vnet_2
system.ruby.delayVCHist.vnet_2::samples          7612                       # delay histogram for vnet_2
system.ruby.delayVCHist.vnet_2::mean         0.371781                       # delay histogram for vnet_2
system.ruby.delayVCHist.vnet_2::stdev        1.319326                       # delay histogram for vnet_2
system.ruby.delayVCHist.vnet_2           |        7048     92.59%     92.59% |           0      0.00%     92.59% |         563      7.40%     99.99% |           0      0.00%     99.99% |           0      0.00%     99.99% |           0      0.00%     99.99% |           0      0.00%     99.99% |           1      0.01%    100.00% |           0      0.00%    100.00% |           0      0.00%    100.00% # delay histogram for vnet_2
system.ruby.delayVCHist.vnet_2::total            7612                       # delay histogram for vnet_2
system.ruby.LD.latency_hist::bucket_size          128                      
system.ruby.LD.latency_hist::max_bucket          1279                      
system.ruby.LD.latency_hist::samples          2542468                      
system.ruby.LD.latency_hist::mean            1.098511                      
system.ruby.LD.latency_hist::gmean           1.015402                      
system.ruby.LD.latency_hist::stdev           2.548969                      
system.ruby.LD.latency_hist              |     2542316     99.99%     99.99% |         142      0.01%    100.00% |           1      0.00%    100.00% |           0      0.00%    100.00% |           7      0.00%    100.00% |           2      0.00%    100.00% |           0      0.00%    100.00% |           0      0.00%    100.00% |           0      0.00%    100.00% |           0      0.00%    100.00%
system.ruby.LD.latency_hist::total            2542468                      
system.ruby.LD.hit_latency_hist::bucket_size          128                      
system.ruby.LD.hit_latency_hist::max_bucket         1279                      
system.ruby.LD.hit_latency_hist::samples      2542468                      
system.ruby.LD.hit_latency_hist::mean        1.098511                      
system.ruby.LD.hit_latency_hist::gmean       1.015402                      
system.ruby.LD.hit_latency_hist::stdev       2.548969                      
system.ruby.LD.hit_latency_hist          |     2542316     99.99%     99.99% |         142      0.01%    100.00% |           1      0.00%    100.00% |           0      0.00%    100.00% |           7      0.00%    100.00% |           2      0.00%    100.00% |           0      0.00%    100.00% |           0      0.00%    100.00% |           0      0.00%    100.00% |           0      0.00%    100.00%
system.ruby.LD.hit_latency_hist::total        2542468                      
system.ruby.ST.latency_hist::bucket_size          128                      
system.ruby.ST.latency_hist::max_bucket          1279                      
system.ruby.ST.latency_hist::samples          1250515                      
system.ruby.ST.latency_hist::mean            1.541333                      
system.ruby.ST.latency_hist::gmean           1.025792                      
system.ruby.ST.latency_hist::stdev           9.216219                      
system.ruby.ST.latency_hist              |     1249428     99.91%     99.91% |         973      0.08%     99.99% |           9      0.00%     99.99% |          13      0.00%     99.99% |          46      0.00%    100.00% |          46      0.00%    100.00% |           0      0.00%    100.00% |           0      0.00%    100.00% |           0      0.00%    100.00% |           0      0.00%    100.00%
system.ruby.ST.latency_hist::total            1250515                      
system.ruby.ST.hit_latency_hist::bucket_size          128                      
system.ruby.ST.hit_latency_hist::max_bucket         1279                      
system.ruby.ST.hit_latency_hist::samples      1250515                      
system.ruby.ST.hit_latency_hist::mean        1.541333                      
system.ruby.ST.hit_latency_hist::gmean       1.025792                      
system.ruby.ST.hit_latency_hist::stdev       9.216219                      
system.ruby.ST.hit_latency_hist          |     1249428     99.91%     99.91% |         973      0.08%     99.99% |           9      0.00%     99.99% |          13      0.00%     99.99% |          46      0.00%    100.00% |          46      0.00%    100.00% |           0      0.00%    100.00% |           0      0.00%    100.00% |           0      0.00%    100.00% |           0      0.00%    100.00%
system.ruby.ST.hit_latency_hist::total        1250515                      
system.ruby.IFETCH.latency_hist::bucket_size          128                      
system.ruby.IFETCH.latency_hist::max_bucket         1279                      
system.ruby.IFETCH.latency_hist::samples     10335648                      
system.ruby.IFETCH.latency_hist::mean        1.015273                      
system.ruby.IFETCH.latency_hist::gmean       1.000734                      
system.ruby.IFETCH.latency_hist::stdev       1.493053                      
system.ruby.IFETCH.latency_hist          |    10335380    100.00%    100.00% |         252      0.00%    100.00% |           1      0.00%    100.00% |           2      0.00%    100.00% |           9      0.00%    100.00% |           4      0.00%    100.00% |           0      0.00%    100.00% |           0      0.00%    100.00% |           0      0.00%    100.00% |           0      0.00%    100.00%
system.ruby.IFETCH.latency_hist::total       10335648                      
system.ruby.IFETCH.hit_latency_hist::bucket_size          128                      
system.ruby.IFETCH.hit_latency_hist::max_bucket         1279                      
system.ruby.IFETCH.hit_latency_hist::samples     10335648                      
system.ruby.IFETCH.hit_latency_hist::mean     1.015273                      
system.ruby.IFETCH.hit_latency_hist::gmean     1.000734                      
system.ruby.IFETCH.hit_latency_hist::stdev     1.493053                      
system.ruby.IFETCH.hit_latency_hist      |    10335380    100.00%    100.00% |         252      0.00%    100.00% |           1      0.00%    100.00% |           2      0.00%    100.00% |           9      0.00%    100.00% |           4      0.00%    100.00% |           0      0.00%    100.00% |           0      0.00%    100.00% |           0      0.00%    100.00% |           0      0.00%    100.00%
system.ruby.IFETCH.hit_latency_hist::total     10335648                      
system.ruby.RMW_Read.latency_hist::bucket_size           16                      
system.ruby.RMW_Read.latency_hist::max_bucket          159                      
system.ruby.RMW_Read.latency_hist::samples          680                      
system.ruby.RMW_Read.latency_hist::mean      2.432353                      
system.ruby.RMW_Read.latency_hist::gmean     1.176661                      
system.ruby.RMW_Read.latency_hist::stdev     7.815706                      
system.ruby.RMW_Read.latency_hist        |         650     95.59%     95.59% |          23      3.38%     98.97% |           6      0.88%     99.85% |           0      0.00%     99.85% |           0      0.00%     99.85% |           0      0.00%     99.85% |           0      0.00%     99.85% |           0      0.00%     99.85% |           1      0.15%    100.00% |           0      0.00%    100.00%
system.ruby.RMW_Read.latency_hist::total          680                      
system.ruby.RMW_Read.hit_latency_hist::bucket_size           16                      
system.ruby.RMW_Read.hit_latency_hist::max_bucket          159                      
system.ruby.RMW_Read.hit_latency_hist::samples          680                      
system.ruby.RMW_Read.hit_latency_hist::mean     2.432353                      
system.ruby.RMW_Read.hit_latency_hist::gmean     1.176661                      
system.ruby.RMW_Read.hit_latency_hist::stdev     7.815706                      
system.ruby.RMW_Read.hit_latency_hist    |         650     95.59%     95.59% |          23      3.38%     98.97% |           6      0.88%     99.85% |           0      0.00%     99.85% |           0      0.00%     99.85% |           0      0.00%     99.85% |           0      0.00%     99.85% |           0      0.00%     99.85% |           1      0.15%    100.00% |           0      0.00%    100.00%
system.ruby.RMW_Read.hit_latency_hist::total          680                      
system.ruby.Locked_RMW_Read.latency_hist::bucket_size           16                      
system.ruby.Locked_RMW_Read.latency_hist::max_bucket          159                      
system.ruby.Locked_RMW_Read.latency_hist::samples       129966                      
system.ruby.Locked_RMW_Read.latency_hist::mean     1.003362                      
system.ruby.Locked_RMW_Read.latency_hist::gmean     1.000306                      
system.ruby.Locked_RMW_Read.latency_hist::stdev     0.537399                      
system.ruby.Locked_RMW_Read.latency_hist |      129959     99.99%     99.99% |           2      0.00%    100.00% |           3      0.00%    100.00% |           0      0.00%    100.00% |           0      0.00%    100.00% |           0      0.00%    100.00% |           0      0.00%    100.00% |           1      0.00%    100.00% |           1      0.00%    100.00% |           0      0.00%    100.00%
system.ruby.Locked_RMW_Read.latency_hist::total       129966                      
system.ruby.Locked_RMW_Read.hit_latency_hist::bucket_size           16                      
system.ruby.Locked_RMW_Read.hit_latency_hist::max_bucket          159                      
system.ruby.Locked_RMW_Read.hit_latency_hist::samples       129966                      
system.ruby.Locked_RMW_Read.hit_latency_hist::mean     1.003362                      
system.ruby.Locked_RMW_Read.hit_latency_hist::gmean     1.000306                      
system.ruby.Locked_RMW_Read.hit_latency_hist::stdev     0.537399                      
[...]
system.ruby.L0Cache_Controller.Ifetch::total     10335648                      
system.ruby.L0Cache_Controller.Store     |     1216498     80.50%     80.50% |      294629     19.50%    100.00%
system.ruby.L0Cache_Controller.Store::total      1511127                      
system.ruby.L0Cache_Controller.Inv       |         880     83.97%     83.97% |         168     16.03%    100.00%
system.ruby.L0Cache_Controller.Inv::total         1048                      
system.ruby.L0Cache_Controller.L0_Replacement |        5389     23.63%     23.63% |       17414     76.37%    100.00%
system.ruby.L0Cache_Controller.L0_Replacement::total        22803                      
system.ruby.L0Cache_Controller.Data      |          72      0.67%      0.67% |       10647     99.33%    100.00%
system.ruby.L0Cache_Controller.Data::total        10719                      
system.ruby.L0Cache_Controller.Data_Exclusive |        6939     39.59%     39.59% |       10590     60.41%    100.00%
system.ruby.L0Cache_Controller.Data_Exclusive::total        17529                      
system.ruby.L0Cache_Controller.NP.Load   |         457      2.48%      2.48% |       17957     97.52%    100.00%
system.ruby.L0Cache_Controller.NP.Load::total        18414                      
system.ruby.L0Cache_Controller.NP.Ifetch |        2166     97.48%     97.48% |          56      2.52%    100.00%
system.ruby.L0Cache_Controller.NP.Ifetch::total         2222                      
system.ruby.L0Cache_Controller.NP.Store  |        4343     94.87%     94.87% |         235      5.13%    100.00%
system.ruby.L0Cache_Controller.NP.Store::total         4578                      
system.ruby.L0Cache_Controller.NP.Inv    |           0      0.00%      0.00% |         112    100.00%    100.00%
system.ruby.L0Cache_Controller.NP.Inv::total          112                      
system.ruby.L0Cache_Controller.S.Load    |      408487     51.24%     51.24% |      388709     48.76%    100.00%
system.ruby.L0Cache_Controller.S.Load::total       797196                      
system.ruby.L0Cache_Controller.S.Ifetch  |         320     18.01%     18.01% |        1457     81.99%    100.00%
system.ruby.L0Cache_Controller.S.Ifetch::total         1777                      
system.ruby.L0Cache_Controller.S.Store   |          45      1.48%      1.48% |        2989     98.52%    100.00%
system.ruby.L0Cache_Controller.S.Store::total         3034                      
system.ruby.L0Cache_Controller.S.Inv     |           8     44.44%     44.44% |          10     55.56%    100.00%
system.ruby.L0Cache_Controller.S.Inv::total           18                      
system.ruby.L0Cache_Controller.S.L0_Replacement |          14      0.19%      0.19% |        7535     99.81%    100.00%
system.ruby.L0Cache_Controller.S.L0_Replacement::total         7549                      
system.ruby.L0Cache_Controller.E.Load    |      140705     57.58%     57.58% |      103645     42.42%    100.00%
system.ruby.L0Cache_Controller.E.Load::total       244350                      
system.ruby.L0Cache_Controller.E.Ifetch  |     7880973     76.28%     76.28% |     2450676     23.72%    100.00%
system.ruby.L0Cache_Controller.E.Ifetch::total     10331649                      
system.ruby.L0Cache_Controller.E.Store   |         107      2.55%      2.55% |        4081     97.45%    100.00%
system.ruby.L0Cache_Controller.E.Store::total         4188                      
system.ruby.L0Cache_Controller.E.Inv     |         339     93.39%     93.39% |          24      6.61%    100.00%
system.ruby.L0Cache_Controller.E.Inv::total          363                      
system.ruby.L0Cache_Controller.E.L0_Replacement |        1541     32.32%     32.32% |        3227     67.68%    100.00%
system.ruby.L0Cache_Controller.E.L0_Replacement::total         4768                      
system.ruby.L0Cache_Controller.M.Load    |     1216288     82.04%     82.04% |      266220     17.96%    100.00%
system.ruby.L0Cache_Controller.M.Load::total      1482508                      
system.ruby.L0Cache_Controller.M.Store   |     1212003     80.84%     80.84% |      287324     19.16%    100.00%
system.ruby.L0Cache_Controller.M.Store::total      1499327                      
system.ruby.L0Cache_Controller.M.Inv     |         533     96.04%     96.04% |          22      3.96%    100.00%
system.ruby.L0Cache_Controller.M.Inv::total          555                      
system.ruby.L0Cache_Controller.M.L0_Replacement |        3834     36.56%     36.56% |        6652     63.44%    100.00%
system.ruby.L0Cache_Controller.M.L0_Replacement::total        10486                      
system.ruby.L0Cache_Controller.IS.Data   |          72      0.67%      0.67% |       10647     99.33%    100.00%
system.ruby.L0Cache_Controller.IS.Data::total        10719                      
system.ruby.L0Cache_Controller.IS.Data_Exclusive |        2551     25.72%     25.72% |        7366     74.28%    100.00%
system.ruby.L0Cache_Controller.IS.Data_Exclusive::total         9917                      
system.ruby.L0Cache_Controller.IM.Data_Exclusive |        4343     94.87%     94.87% |         235      5.13%    100.00%
system.ruby.L0Cache_Controller.IM.Data_Exclusive::total         4578                      
system.ruby.L0Cache_Controller.SM.Data_Exclusive |          45      1.48%      1.48% |        2989     98.52%    100.00%
system.ruby.L0Cache_Controller.SM.Data_Exclusive::total         3034                      
system.ruby.L1Cache_Controller.Load      |        2623     12.71%     12.71% |       18013     87.29%    100.00%
system.ruby.L1Cache_Controller.Load::total        20636                      
system.ruby.L1Cache_Controller.Store     |        4388     57.65%     57.65% |        3224     42.35%    100.00%
system.ruby.L1Cache_Controller.Store::total         7612                      
system.ruby.L1Cache_Controller.WriteBack |        5375     35.24%     35.24% |        9879     64.76%    100.00%
system.ruby.L1Cache_Controller.WriteBack::total        15254                      
system.ruby.L1Cache_Controller.L0_DataAck |         533     96.04%     96.04% |          22      3.96%    100.00%
system.ruby.L1Cache_Controller.L0_DataAck::total          555                      
system.ruby.L1Cache_Controller.Inv       |        2994     98.49%     98.49% |          46      1.51%    100.00%
system.ruby.L1Cache_Controller.Inv::total         3040                      
system.ruby.L1Cache_Controller.L0_Invalidate_Own |         700     72.46%     72.46% |         266     27.54%    100.00%
system.ruby.L1Cache_Controller.L0_Invalidate_Own::total          966                      
system.ruby.L1Cache_Controller.L0_Invalidate_Else |        1060     93.81%     93.81% |          70      6.19%    100.00%
system.ruby.L1Cache_Controller.L0_Invalidate_Else::total         1130                      
system.ruby.L1Cache_Controller.L1_Replacement |        1527     82.94%     82.94% |         314     17.06%    100.00%
system.ruby.L1Cache_Controller.L1_Replacement::total         1841                      
system.ruby.L1Cache_Controller.Fwd_GETX  |           9     75.00%     75.00% |           3     25.00%    100.00%
system.ruby.L1Cache_Controller.Fwd_GETX::total           12                      
system.ruby.L1Cache_Controller.Fwd_GETS  |        3472     98.86%     98.86% |          40      1.14%    100.00%
system.ruby.L1Cache_Controller.Fwd_GETS::total         3512                      
system.ruby.L1Cache_Controller.Data_Exclusive |        1547     59.73%     59.73% |        1043     40.27%    100.00%
system.ruby.L1Cache_Controller.Data_Exclusive::total         2590                      
system.ruby.L1Cache_Controller.DataS_fromL1 |          40      1.14%      1.14% |        3472     98.86%    100.00%
system.ruby.L1Cache_Controller.DataS_fromL1::total         3512                      
system.ruby.L1Cache_Controller.Data_all_Acks |        4315     95.09%     95.09% |         223      4.91%    100.00%
system.ruby.L1Cache_Controller.Data_all_Acks::total         4538                      
system.ruby.L1Cache_Controller.L0_Ack    |         347     70.39%     70.39% |         146     29.61%    100.00%
system.ruby.L1Cache_Controller.L0_Ack::total          493                      
system.ruby.L1Cache_Controller.Ack       |          46      1.51%      1.51% |        2994     98.49%    100.00%
system.ruby.L1Cache_Controller.Ack::total         3040                      
system.ruby.L1Cache_Controller.Ack_all   |          46      1.51%      1.51% |        2994     98.49%    100.00%
system.ruby.L1Cache_Controller.Ack_all::total         3040                      
system.ruby.L1Cache_Controller.WB_Ack    |        1359     86.73%     86.73% |         208     13.27%    100.00%
system.ruby.L1Cache_Controller.WB_Ack::total         1567                      
system.ruby.L1Cache_Controller.NP.Load   |        1580     25.76%     25.76% |        4553     74.24%    100.00%
system.ruby.L1Cache_Controller.NP.Load::total         6133                      
system.ruby.L1Cache_Controller.NP.Store  |        4314     95.89%     95.89% |         185      4.11%    100.00%
system.ruby.L1Cache_Controller.NP.Store::total         4499                      
system.ruby.L1Cache_Controller.NP.Inv    |         101    100.00%    100.00% |           0      0.00%    100.00%
system.ruby.L1Cache_Controller.NP.Inv::total          101                      
system.ruby.L1Cache_Controller.I.Load    |           8    100.00%    100.00% |           0      0.00%    100.00%
system.ruby.L1Cache_Controller.I.Load::total            8                      
system.ruby.L1Cache_Controller.I.L1_Replacement |           1    100.00%    100.00% |           0      0.00%    100.00%
system.ruby.L1Cache_Controller.I.L1_Replacement::total            1                      
system.ruby.L1Cache_Controller.S.Load    |           5      0.07%      0.07% |        7132     99.93%    100.00%
system.ruby.L1Cache_Controller.S.Load::total         7137                      
system.ruby.L1Cache_Controller.S.Store   |          45      1.48%      1.48% |        2992     98.52%    100.00%
system.ruby.L1Cache_Controller.S.Store::total         3037                      
system.ruby.L1Cache_Controller.S.L0_Invalidate_Own |           0      0.00%      0.00% |         105    100.00%    100.00%
system.ruby.L1Cache_Controller.S.L0_Invalidate_Own::total          105                      
system.ruby.L1Cache_Controller.S.L0_Invalidate_Else |           8     32.00%     32.00% |          17     68.00%    100.00%
system.ruby.L1Cache_Controller.S.L0_Invalidate_Else::total           25                      
system.ruby.L1Cache_Controller.SS.Load   |          26     83.87%     83.87% |           5     16.13%    100.00%
system.ruby.L1Cache_Controller.SS.Load::total           31                      
system.ruby.L1Cache_Controller.SS.Store  |           1     33.33%     33.33% |           2     66.67%    100.00%
system.ruby.L1Cache_Controller.SS.Store::total            3                      
system.ruby.L1Cache_Controller.SS.Inv    |        2893     98.43%     98.43% |          46      1.57%    100.00%
system.ruby.L1Cache_Controller.SS.Inv::total         2939                      
system.ruby.L1Cache_Controller.SS.L1_Replacement |         167     61.17%     61.17% |         106     38.83%    100.00%
system.ruby.L1Cache_Controller.SS.L1_Replacement::total          273                      
system.ruby.L1Cache_Controller.E.WriteBack |         793     46.76%     46.76% |         903     53.24%    100.00%
system.ruby.L1Cache_Controller.E.WriteBack::total         1696                      
system.ruby.L1Cache_Controller.E.L0_Invalidate_Own |         286     91.96%     91.96% |          25      8.04%    100.00%
system.ruby.L1Cache_Controller.E.L0_Invalidate_Own::total          311                      
system.ruby.L1Cache_Controller.E.L0_Invalidate_Else |           8     80.00%     80.00% |           2     20.00%    100.00%
system.ruby.L1Cache_Controller.E.L0_Invalidate_Else::total           10                      
system.ruby.L1Cache_Controller.EE.L1_Replacement |         276     94.20%     94.20% |          17      5.80%    100.00%
system.ruby.L1Cache_Controller.EE.L1_Replacement::total          293                      
system.ruby.L1Cache_Controller.EE.Fwd_GETS |           8     80.00%     80.00% |           2     20.00%    100.00%
system.ruby.L1Cache_Controller.EE.Fwd_GETS::total           10                      
system.ruby.L1Cache_Controller.M.WriteBack |        4582     33.80%     33.80% |        8976     66.20%    100.00%
system.ruby.L1Cache_Controller.M.WriteBack::total        13558                      
system.ruby.L1Cache_Controller.M.L0_Invalidate_Own |          64     95.52%     95.52% |           3      4.48%    100.00%
system.ruby.L1Cache_Controller.M.L0_Invalidate_Own::total           67                      
system.ruby.L1Cache_Controller.M.L0_Invalidate_Else |         514     96.98%     96.98% |          16      3.02%    100.00%
system.ruby.L1Cache_Controller.M.L0_Invalidate_Else::total          530                      
system.ruby.L1Cache_Controller.MM.Load   |        1004     13.70%     13.70% |        6323     86.30%    100.00%
system.ruby.L1Cache_Controller.MM.Load::total         7327                      
system.ruby.L1Cache_Controller.MM.Store  |          28     38.36%     38.36% |          45     61.64%    100.00%
system.ruby.L1Cache_Controller.MM.Store::total           73                      
system.ruby.L1Cache_Controller.MM.L1_Replacement |        1083     85.01%     85.01% |         191     14.99%    100.00%
system.ruby.L1Cache_Controller.MM.L1_Replacement::total         1274                      
system.ruby.L1Cache_Controller.MM.Fwd_GETX |           9     75.00%     75.00% |           3     25.00%    100.00%
system.ruby.L1Cache_Controller.MM.Fwd_GETX::total           12                      
system.ruby.L1Cache_Controller.MM.Fwd_GETS |        3464     98.91%     98.91% |          38      1.09%    100.00%
system.ruby.L1Cache_Controller.MM.Fwd_GETS::total         3502                      
system.ruby.L1Cache_Controller.IS.Data_Exclusive |        1547     59.73%     59.73% |        1043     40.27%    100.00%
system.ruby.L1Cache_Controller.IS.Data_Exclusive::total         2590                      
system.ruby.L1Cache_Controller.IS.DataS_fromL1 |          40      1.14%      1.14% |        3472     98.86%    100.00%
system.ruby.L1Cache_Controller.IS.DataS_fromL1::total         3512                      
system.ruby.L1Cache_Controller.IS.Data_all_Acks |           1      2.56%      2.56% |          38     97.44%    100.00%
system.ruby.L1Cache_Controller.IS.Data_all_Acks::total           39                      
system.ruby.L1Cache_Controller.IM.Data_all_Acks |        4314     95.89%     95.89% |         185      4.11%    100.00%
system.ruby.L1Cache_Controller.IM.Data_all_Acks::total         4499                      
system.ruby.L1Cache_Controller.SM.Ack    |          46      1.51%      1.51% |        2994     98.49%    100.00%
system.ruby.L1Cache_Controller.SM.Ack::total         3040                      
system.ruby.L1Cache_Controller.SM.Ack_all |          46      1.51%      1.51% |        2994     98.49%    100.00%
system.ruby.L1Cache_Controller.SM.Ack_all::total         3040                      
system.ruby.L1Cache_Controller.M_I.WB_Ack |        1359     86.73%     86.73% |         208     13.27%    100.00%
system.ruby.L1Cache_Controller.M_I.WB_Ack::total         1567                      
system.ruby.L1Cache_Controller.S_IL0.L0_Invalidate_Own |           0      0.00%      0.00% |         105    100.00%    100.00%
system.ruby.L1Cache_Controller.S_IL0.L0_Invalidate_Own::total          105                      
system.ruby.L1Cache_Controller.S_IL0.L0_Invalidate_Else |           8     32.00%     32.00% |          17     68.00%    100.00%
system.ruby.L1Cache_Controller.S_IL0.L0_Invalidate_Else::total           25                      
system.ruby.L1Cache_Controller.S_IL0.L0_Ack |           8      6.15%      6.15% |         122     93.85%    100.00%
system.ruby.L1Cache_Controller.S_IL0.L0_Ack::total          130                      
system.ruby.L1Cache_Controller.E_IL0.L0_DataAck |          10     55.56%     55.56% |           8     44.44%    100.00%
system.ruby.L1Cache_Controller.E_IL0.L0_DataAck::total           18                      
system.ruby.L1Cache_Controller.E_IL0.L0_Invalidate_Own |         286     91.96%     91.96% |          25      8.04%    100.00%
system.ruby.L1Cache_Controller.E_IL0.L0_Invalidate_Own::total          311                      
system.ruby.L1Cache_Controller.E_IL0.L0_Invalidate_Else |           8     80.00%     80.00% |           2     20.00%    100.00%
system.ruby.L1Cache_Controller.E_IL0.L0_Invalidate_Else::total           10                      
system.ruby.L1Cache_Controller.E_IL0.L0_Ack |         284     93.73%     93.73% |          19      6.27%    100.00%
system.ruby.L1Cache_Controller.E_IL0.L0_Ack::total          303                      
system.ruby.L1Cache_Controller.M_IL0.L0_DataAck |         523     97.39%     97.39% |          14      2.61%    100.00%
system.ruby.L1Cache_Controller.M_IL0.L0_DataAck::total          537                      
system.ruby.L1Cache_Controller.M_IL0.L0_Invalidate_Own |          64     95.52%     95.52% |           3      4.48%    100.00%
system.ruby.L1Cache_Controller.M_IL0.L0_Invalidate_Own::total           67                      
system.ruby.L1Cache_Controller.M_IL0.L0_Invalidate_Else |         514     96.98%     96.98% |          16      3.02%    100.00%
system.ruby.L1Cache_Controller.M_IL0.L0_Invalidate_Else::total          530                      
system.ruby.L1Cache_Controller.M_IL0.L0_Ack |          55     91.67%     91.67% |           5      8.33%    100.00%
system.ruby.L1Cache_Controller.M_IL0.L0_Ack::total           60                      
system.ruby.L2Cache_Controller.L1_GETS           6141      0.00%      0.00%
system.ruby.L2Cache_Controller.L1_GETX           4499      0.00%      0.00%
system.ruby.L2Cache_Controller.L1_UPGRADE         3040      0.00%      0.00%
system.ruby.L2Cache_Controller.L1_PUTX           1567      0.00%      0.00%
system.ruby.L2Cache_Controller.Mem_Data          6299      0.00%      0.00%
system.ruby.L2Cache_Controller.WB_Data           3507      0.00%      0.00%
system.ruby.L2Cache_Controller.WB_Data_clean            5      0.00%      0.00%
system.ruby.L2Cache_Controller.Unblock           3512      0.00%      0.00%
system.ruby.L2Cache_Controller.Exclusive_Unblock        10129      0.00%      0.00%
system.ruby.L2Cache_Controller.NP.L1_GETS         1825      0.00%      0.00%
system.ruby.L2Cache_Controller.NP.L1_GETX         4474      0.00%      0.00%
system.ruby.L2Cache_Controller.SS.L1_GETS           39      0.00%      0.00%
system.ruby.L2Cache_Controller.SS.L1_UPGRADE         3040      0.00%      0.00%
system.ruby.L2Cache_Controller.M.L1_GETS          765      0.00%      0.00%
system.ruby.L2Cache_Controller.M.L1_GETX           13      0.00%      0.00%
system.ruby.L2Cache_Controller.MT.L1_GETS         3512      0.00%      0.00%
system.ruby.L2Cache_Controller.MT.L1_GETX           12      0.00%      0.00%
system.ruby.L2Cache_Controller.MT.L1_PUTX         1567      0.00%      0.00%
system.ruby.L2Cache_Controller.ISS.Mem_Data         1825      0.00%      0.00%
system.ruby.L2Cache_Controller.IM.Mem_Data         4474      0.00%      0.00%
system.ruby.L2Cache_Controller.SS_MB.Exclusive_Unblock         3040      0.00%      0.00%
system.ruby.L2Cache_Controller.MT_MB.Exclusive_Unblock         7089      0.00%      0.00%
system.ruby.L2Cache_Controller.MT_IIB.WB_Data         3507      0.00%      0.00%
system.ruby.L2Cache_Controller.MT_IIB.WB_Data_clean            5      0.00%      0.00%
system.ruby.L2Cache_Controller.MT_SB.Unblock         3512      0.00%      0.00%

---------- End Simulation Statistics   ----------
