
---------- Begin Simulation Statistics ----------
sim_seconds                                  3.055250                       # Number of seconds simulated
sim_ticks                                3055249991000                       # Number of ticks simulated
final_tick                               3055249991000                       # Number of ticks from beginning of simulation (restored from checkpoints and never reset)
sim_freq                                 1000000000000                       # Frequency of simulated ticks
host_inst_rate                                 145722                       # Simulator instruction rate (inst/s)
host_op_rate                                   404882                       # Simulator op (including micro ops) rate (op/s)
host_tick_rate                              239042745                       # Simulator tick rate (ticks/s)
host_mem_usage                                1514872                       # Number of bytes of host memory used
host_seconds                                 12781.19                       # Real time elapsed on the host
sim_insts                                  1862496348                       # Number of instructions simulated
sim_ops                                    5174875761                       # Number of ops (including micro ops) simulated
system.voltage_domain.voltage                       1                       # Voltage in Volts
system.clk_domain.clock                          1000                       # Clock period in ticks
system.mem_ctrls.bytes_read::ruby.dir_cntrl0    196758848                       # Number of bytes read from this memory
system.mem_ctrls.bytes_read::total          196758848                       # Number of bytes read from this memory
system.mem_ctrls.bytes_written::ruby.dir_cntrl0    116749312                       # Number of bytes written to this memory
system.mem_ctrls.bytes_written::total       116749312                       # Number of bytes written to this memory
system.mem_ctrls.num_reads::ruby.dir_cntrl0      3074357                       # Number of read requests responded to by this memory
system.mem_ctrls.num_reads::total             3074357                       # Number of read requests responded to by this memory
system.mem_ctrls.num_writes::ruby.dir_cntrl0      1824208                       # Number of write requests responded to by this memory
system.mem_ctrls.num_writes::total            1824208                       # Number of write requests responded to by this memory
system.mem_ctrls.bw_read::ruby.dir_cntrl0     64400245                       # Total read bandwidth from this memory (bytes/s)
system.mem_ctrls.bw_read::total              64400245                       # Total read bandwidth from this memory (bytes/s)
system.mem_ctrls.bw_write::ruby.dir_cntrl0     38212687                       # Write bandwidth from this memory (bytes/s)
system.mem_ctrls.bw_write::total             38212687                       # Write bandwidth from this memory (bytes/s)
system.mem_ctrls.bw_total::ruby.dir_cntrl0    102612932                       # Total bandwidth to/from this memory (bytes/s)
system.mem_ctrls.bw_total::total            102612932                       # Total bandwidth to/from this memory (bytes/s)
system.mem_ctrls.readReqs                     3074357                       # Number of read requests accepted
system.mem_ctrls.writeReqs                    1824208                       # Number of write requests accepted
system.mem_ctrls.readBursts                   3074357                       # Number of DRAM read bursts, including those serviced by the write queue
system.mem_ctrls.writeBursts                  1824208                       # Number of DRAM write bursts, including those merged in the write queue
system.mem_ctrls.bytesReadDRAM              196746496                       # Total number of bytes read from DRAM
system.mem_ctrls.bytesReadWrQ                   12352                       # Total number of bytes read from write queue
system.mem_ctrls.bytesWritten               116747328                       # Total number of bytes written to DRAM
system.mem_ctrls.bytesReadSys               196758848                       # Total read bytes from the system interface side
system.mem_ctrls.bytesWrittenSys            116749312                       # Total written bytes from the system interface side
system.mem_ctrls.servicedByWrQ                    193                       # Number of DRAM read bursts serviced by the write queue
system.mem_ctrls.mergedWrBursts                     0                       # Number of DRAM write bursts merged with an existing one
system.mem_ctrls.neitherReadNorWriteReqs            0                       # Number of requests that are neither read nor write
system.mem_ctrls.perBankRdBursts::0            192352                       # Per bank write bursts
system.mem_ctrls.perBankRdBursts::1            192007                       # Per bank write bursts
system.mem_ctrls.perBankRdBursts::2            192975                       # Per bank write bursts
system.mem_ctrls.perBankRdBursts::3            193128                       # Per bank write bursts
system.mem_ctrls.perBankRdBursts::4            190169                       # Per bank write bursts
system.mem_ctrls.perBankRdBursts::5            193545                       # Per bank write bursts
system.mem_ctrls.perBankRdBursts::6            193646                       # Per bank write bursts
system.mem_ctrls.perBankRdBursts::7            195945                       # Per bank write bursts
system.mem_ctrls.perBankRdBursts::8            191714                       # Per bank write bursts
system.mem_ctrls.perBankRdBursts::9            191786                       # Per bank write bursts
system.mem_ctrls.perBankRdBursts::10           191610                       # Per bank write bursts
system.mem_ctrls.perBankRdBursts::11           192293                       # Per bank write bursts
system.mem_ctrls.perBankRdBursts::12           190940                       # Per bank write bursts
system.mem_ctrls.perBankRdBursts::13           191529                       # Per bank write bursts
system.mem_ctrls.perBankRdBursts::14           190178                       # Per bank write bursts
system.mem_ctrls.perBankRdBursts::15           190347                       # Per bank write bursts
system.mem_ctrls.perBankWrBursts::0            113504                       # Per bank write bursts
system.mem_ctrls.perBankWrBursts::1            112696                       # Per bank write bursts
system.mem_ctrls.perBankWrBursts::2            114532                       # Per bank write bursts
system.mem_ctrls.perBankWrBursts::3            113841                       # Per bank write bursts
system.mem_ctrls.perBankWrBursts::4            114138                       # Per bank write bursts
system.mem_ctrls.perBankWrBursts::5            115382                       # Per bank write bursts
system.mem_ctrls.perBankWrBursts::6            114199                       # Per bank write bursts
system.mem_ctrls.perBankWrBursts::7            115338                       # Per bank write bursts
system.mem_ctrls.perBankWrBursts::8            114186                       # Per bank write bursts
system.mem_ctrls.perBankWrBursts::9            114366                       # Per bank write bursts
system.mem_ctrls.perBankWrBursts::10           113788                       # Per bank write bursts
system.mem_ctrls.perBankWrBursts::11           113873                       # Per bank write bursts
system.mem_ctrls.perBankWrBursts::12           113139                       # Per bank write bursts
system.mem_ctrls.perBankWrBursts::13           114112                       # Per bank write bursts
system.mem_ctrls.perBankWrBursts::14           113520                       # Per bank write bursts
system.mem_ctrls.perBankWrBursts::15           113563                       # Per bank write bursts
system.mem_ctrls.numRdRetry                         0                       # Number of times read queue was full causing retry
system.mem_ctrls.numWrRetry                         0                       # Number of times write queue was full causing retry
system.mem_ctrls.totGap                  3055249896500                       # Total gap between requests
system.mem_ctrls.readPktSize::0                     0                       # Read request sizes (log2)
system.mem_ctrls.readPktSize::1                     0                       # Read request sizes (log2)
system.mem_ctrls.readPktSize::2                     0                       # Read request sizes (log2)
system.mem_ctrls.readPktSize::3                     0                       # Read request sizes (log2)
system.mem_ctrls.readPktSize::4                     0                       # Read request sizes (log2)
system.mem_ctrls.readPktSize::5                     0                       # Read request sizes (log2)
system.mem_ctrls.readPktSize::6               3074357                       # Read request sizes (log2)
system.mem_ctrls.writePktSize::0                    0                       # Write request sizes (log2)
system.mem_ctrls.writePktSize::1                    0                       # Write request sizes (log2)
system.mem_ctrls.writePktSize::2                    0                       # Write request sizes (log2)
system.mem_ctrls.writePktSize::3                    0                       # Write request sizes (log2)
system.mem_ctrls.writePktSize::4                    0                       # Write request sizes (log2)
system.mem_ctrls.writePktSize::5                    0                       # Write request sizes (log2)
system.mem_ctrls.writePktSize::6              1824208                       # Write request sizes (log2)
system.mem_ctrls.rdQLenPdf::0                 1791730                       # What read queue length does an incoming req see
system.mem_ctrls.rdQLenPdf::1                  431719                       # What read queue length does an incoming req see
system.mem_ctrls.rdQLenPdf::2                  360950                       # What read queue length does an incoming req see
system.mem_ctrls.rdQLenPdf::3                  235174                       # What read queue length does an incoming req see
system.mem_ctrls.rdQLenPdf::4                  127020                       # What read queue length does an incoming req see
system.mem_ctrls.rdQLenPdf::5                   74184                       # What read queue length does an incoming req see
system.mem_ctrls.rdQLenPdf::6                   40097                       # What read queue length does an incoming req see
system.mem_ctrls.rdQLenPdf::7                   13290                       # What read queue length does an incoming req see
system.mem_ctrls.rdQLenPdf::8                       0                       # What read queue length does an incoming req see
system.mem_ctrls.rdQLenPdf::9                       0                       # What read queue length does an incoming req see
system.mem_ctrls.rdQLenPdf::10                      0                       # What read queue length does an incoming req see
system.mem_ctrls.rdQLenPdf::11                      0                       # What read queue length does an incoming req see
system.mem_ctrls.rdQLenPdf::12                      0                       # What read queue length does an incoming req see
system.mem_ctrls.rdQLenPdf::13                      0                       # What read queue length does an incoming req see
system.mem_ctrls.rdQLenPdf::14                      0                       # What read queue length does an incoming req see
system.mem_ctrls.rdQLenPdf::15                      0                       # What read queue length does an incoming req see
system.mem_ctrls.rdQLenPdf::16                      0                       # What read queue length does an incoming req see
system.mem_ctrls.rdQLenPdf::17                      0                       # What read queue length does an incoming req see
system.mem_ctrls.rdQLenPdf::18                      0                       # What read queue length does an incoming req see
system.mem_ctrls.rdQLenPdf::19                      0                       # What read queue length does an incoming req see
system.mem_ctrls.rdQLenPdf::20                      0                       # What read queue length does an incoming req see
system.mem_ctrls.rdQLenPdf::21                      0                       # What read queue length does an incoming req see
system.mem_ctrls.rdQLenPdf::22                      0                       # What read queue length does an incoming req see
system.mem_ctrls.rdQLenPdf::23                      0                       # What read queue length does an incoming req see
system.mem_ctrls.rdQLenPdf::24                      0                       # What read queue length does an incoming req see
system.mem_ctrls.rdQLenPdf::25                      0                       # What read queue length does an incoming req see
system.mem_ctrls.rdQLenPdf::26                      0                       # What read queue length does an incoming req see
system.mem_ctrls.rdQLenPdf::27                      0                       # What read queue length does an incoming req see
system.mem_ctrls.rdQLenPdf::28                      0                       # What read queue length does an incoming req see
system.mem_ctrls.rdQLenPdf::29                      0                       # What read queue length does an incoming req see
system.mem_ctrls.rdQLenPdf::30                      0                       # What read queue length does an incoming req see
system.mem_ctrls.rdQLenPdf::31                      0                       # What read queue length does an incoming req see
system.mem_ctrls.wrQLenPdf::0                       1                       # What write queue length does an incoming req see
system.mem_ctrls.wrQLenPdf::1                       1                       # What write queue length does an incoming req see
system.mem_ctrls.wrQLenPdf::2                       1                       # What write queue length does an incoming req see
system.mem_ctrls.wrQLenPdf::3                       1                       # What write queue length does an incoming req see
system.mem_ctrls.wrQLenPdf::4                       1                       # What write queue length does an incoming req see
system.mem_ctrls.wrQLenPdf::5                       1                       # What write queue length does an incoming req see
system.mem_ctrls.wrQLenPdf::6                       1                       # What write queue length does an incoming req see
system.mem_ctrls.wrQLenPdf::7                       1                       # What write queue length does an incoming req see
system.mem_ctrls.wrQLenPdf::8                       1                       # What write queue length does an incoming req see
system.mem_ctrls.wrQLenPdf::9                       1                       # What write queue length does an incoming req see
system.mem_ctrls.wrQLenPdf::10                      1                       # What write queue length does an incoming req see
system.mem_ctrls.wrQLenPdf::11                      1                       # What write queue length does an incoming req see
system.mem_ctrls.wrQLenPdf::12                      1                       # What write queue length does an incoming req see
system.mem_ctrls.wrQLenPdf::13                      1                       # What write queue length does an incoming req see
system.mem_ctrls.wrQLenPdf::14                      1                       # What write queue length does an incoming req see
system.mem_ctrls.wrQLenPdf::15                   2442                       # What write queue length does an incoming req see
system.mem_ctrls.wrQLenPdf::16                   2958                       # What write queue length does an incoming req see
system.mem_ctrls.wrQLenPdf::17                  53951                       # What write queue length does an incoming req see
system.mem_ctrls.wrQLenPdf::18                  67418                       # What write queue length does an incoming req see
system.mem_ctrls.wrQLenPdf::19                  82911                       # What write queue length does an incoming req see
system.mem_ctrls.wrQLenPdf::20                  99267                       # What write queue length does an incoming req see
system.mem_ctrls.wrQLenPdf::21                 112428                       # What write queue length does an incoming req see
system.mem_ctrls.wrQLenPdf::22                 119219                       # What write queue length does an incoming req see
system.mem_ctrls.wrQLenPdf::23                 123759                       # What write queue length does an incoming req see
system.mem_ctrls.wrQLenPdf::24                 125935                       # What write queue length does an incoming req see
system.mem_ctrls.wrQLenPdf::25                 127522                       # What write queue length does an incoming req see
system.mem_ctrls.wrQLenPdf::26                 127870                       # What write queue length does an incoming req see
system.mem_ctrls.wrQLenPdf::27                 125876                       # What write queue length does an incoming req see
system.mem_ctrls.wrQLenPdf::28                 124272                       # What write queue length does an incoming req see
system.mem_ctrls.wrQLenPdf::29                 125417                       # What write queue length does an incoming req see
system.mem_ctrls.wrQLenPdf::30                 129342                       # What write queue length does an incoming req see
system.mem_ctrls.wrQLenPdf::31                 132158                       # What write queue length does an incoming req see
system.mem_ctrls.wrQLenPdf::32                 129403                       # What write queue length does an incoming req see
system.mem_ctrls.wrQLenPdf::33                   6846                       # What write queue length does an incoming req see
system.mem_ctrls.wrQLenPdf::34                   2594                       # What write queue length does an incoming req see
system.mem_ctrls.wrQLenPdf::35                   1232                       # What write queue length does an incoming req see
system.mem_ctrls.wrQLenPdf::36                    622                       # What write queue length does an incoming req see
system.mem_ctrls.wrQLenPdf::37                    321                       # What write queue length does an incoming req see
system.mem_ctrls.wrQLenPdf::38                    158                       # What write queue length does an incoming req see
system.mem_ctrls.wrQLenPdf::39                     76                       # What write queue length does an incoming req see
system.mem_ctrls.wrQLenPdf::40                     24                       # What write queue length does an incoming req see
system.mem_ctrls.wrQLenPdf::41                     14                       # What write queue length does an incoming req see
system.mem_ctrls.wrQLenPdf::42                     17                       # What write queue length does an incoming req see
system.mem_ctrls.wrQLenPdf::43                     14                       # What write queue length does an incoming req see
system.mem_ctrls.wrQLenPdf::44                     12                       # What write queue length does an incoming req see
system.mem_ctrls.wrQLenPdf::45                     12                       # What write queue length does an incoming req see
system.mem_ctrls.wrQLenPdf::46                     14                       # What write queue length does an incoming req see
system.mem_ctrls.wrQLenPdf::47                     13                       # What write queue length does an incoming req see
system.mem_ctrls.wrQLenPdf::48                     11                       # What write queue length does an incoming req see
system.mem_ctrls.wrQLenPdf::49                     10                       # What write queue length does an incoming req see
system.mem_ctrls.wrQLenPdf::50                      9                       # What write queue length does an incoming req see
system.mem_ctrls.wrQLenPdf::51                      9                       # What write queue length does an incoming req see
system.mem_ctrls.wrQLenPdf::52                     12                       # What write queue length does an incoming req see
system.mem_ctrls.wrQLenPdf::53                     10                       # What write queue length does an incoming req see
system.mem_ctrls.wrQLenPdf::54                      9                       # What write queue length does an incoming req see
system.mem_ctrls.wrQLenPdf::55                      6                       # What write queue length does an incoming req see
system.mem_ctrls.wrQLenPdf::56                      0                       # What write queue length does an incoming req see
system.mem_ctrls.wrQLenPdf::57                      0                       # What write queue length does an incoming req see
system.mem_ctrls.wrQLenPdf::58                      0                       # What write queue length does an incoming req see
system.mem_ctrls.wrQLenPdf::59                      0                       # What write queue length does an incoming req see
system.mem_ctrls.wrQLenPdf::60                      0                       # What write queue length does an incoming req see
system.mem_ctrls.wrQLenPdf::61                      0                       # What write queue length does an incoming req see
system.mem_ctrls.wrQLenPdf::62                      0                       # What write queue length does an incoming req see
system.mem_ctrls.wrQLenPdf::63                      0                       # What write queue length does an incoming req see
system.mem_ctrls.bytesPerActivate::samples      1184553                       # Bytes accessed per row activation
system.mem_ctrls.bytesPerActivate::mean    264.649798                       # Bytes accessed per row activation
system.mem_ctrls.bytesPerActivate::gmean   160.598488                       # Bytes accessed per row activation
system.mem_ctrls.bytesPerActivate::stdev   279.271935                       # Bytes accessed per row activation
system.mem_ctrls.bytesPerActivate::0-127       542111     45.77%     45.77% # Bytes accessed per row activation
system.mem_ctrls.bytesPerActivate::128-255       178020     15.03%     60.79% # Bytes accessed per row activation
system.mem_ctrls.bytesPerActivate::256-383       154111     13.01%     73.80% # Bytes accessed per row activation
system.mem_ctrls.bytesPerActivate::384-511        85798      7.24%     81.05% # Bytes accessed per row activation
system.mem_ctrls.bytesPerActivate::512-639        69377      5.86%     86.90% # Bytes accessed per row activation
system.mem_ctrls.bytesPerActivate::640-767        45565      3.85%     90.75% # Bytes accessed per row activation
system.mem_ctrls.bytesPerActivate::768-895        26499      2.24%     92.99% # Bytes accessed per row activation
system.mem_ctrls.bytesPerActivate::896-1023        15996      1.35%     94.34% # Bytes accessed per row activation
system.mem_ctrls.bytesPerActivate::1024-1151        67076      5.66%    100.00% # Bytes accessed per row activation
system.mem_ctrls.bytesPerActivate::total      1184553                       # Bytes accessed per row activation
system.mem_ctrls.rdPerTurnAround::samples       113543                       # Reads before turning the bus around for writes
system.mem_ctrls.rdPerTurnAround::mean      27.073444                       # Reads before turning the bus around for writes
system.mem_ctrls.rdPerTurnAround::gmean     19.277611                       # Reads before turning the bus around for writes
system.mem_ctrls.rdPerTurnAround::stdev   1779.299216                       # Reads before turning the bus around for writes
system.mem_ctrls.rdPerTurnAround::0-32767       113542    100.00%    100.00% # Reads before turning the bus around for writes
system.mem_ctrls.rdPerTurnAround::589824-622591            1      0.00%    100.00% # Reads before turning the bus around for writes
system.mem_ctrls.rdPerTurnAround::total        113543                       # Reads before turning the bus around for writes
system.mem_ctrls.wrPerTurnAround::samples       113543                       # Writes before turning the bus around for reads
system.mem_ctrls.wrPerTurnAround::mean      16.065957                       # Writes before turning the bus around for reads
system.mem_ctrls.wrPerTurnAround::gmean     16.061122                       # Writes before turning the bus around for reads
system.mem_ctrls.wrPerTurnAround::stdev      0.418679                       # Writes before turning the bus around for reads
system.mem_ctrls.wrPerTurnAround::16           110283     97.13%     97.13% # Writes before turning the bus around for reads
system.mem_ctrls.wrPerTurnAround::17              304      0.27%     97.40% # Writes before turning the bus around for reads
system.mem_ctrls.wrPerTurnAround::18             2267      2.00%     99.39% # Writes before turning the bus around for reads
system.mem_ctrls.wrPerTurnAround::19              353      0.31%     99.70% # Writes before turning the bus around for reads
system.mem_ctrls.wrPerTurnAround::20              178      0.16%     99.86% # Writes before turning the bus around for reads
system.mem_ctrls.wrPerTurnAround::21               92      0.08%     99.94% # Writes before turning the bus around for reads
system.mem_ctrls.wrPerTurnAround::22               45      0.04%     99.98% # Writes before turning the bus around for reads
system.mem_ctrls.wrPerTurnAround::23               20      0.02%    100.00% # Writes before turning the bus around for reads
system.mem_ctrls.wrPerTurnAround::26                1      0.00%    100.00% # Writes before turning the bus around for reads
system.mem_ctrls.wrPerTurnAround::total        113543                       # Writes before turning the bus around for reads
system.mem_ctrls.totQLat                  87115094001                       # Total ticks spent queuing
system.mem_ctrls.totMemAccLat            144755669001                       # Total ticks spent from burst creation until serviced by the DRAM
system.mem_ctrls.totBusLat                15370820000                       # Total ticks spent in databus transfers
system.mem_ctrls.avgQLat                     28337.82                       # Average queueing delay per DRAM burst
system.mem_ctrls.avgBusLat                    5000.00                       # Average bus latency per DRAM burst
system.mem_ctrls.avgMemAccLat                47087.82                       # Average memory access latency per DRAM burst
system.mem_ctrls.avgRdBW                        64.40                       # Average DRAM read bandwidth in MiByte/s
system.mem_ctrls.avgWrBW                        38.21                       # Average achieved write bandwidth in MiByte/s
system.mem_ctrls.avgRdBWSys                     64.40                       # Average system read bandwidth in MiByte/s
system.mem_ctrls.avgWrBWSys                     38.21                       # Average system write bandwidth in MiByte/s
system.mem_ctrls.peakBW                      12800.00                       # Theoretical peak bandwidth in MiByte/s
system.mem_ctrls.busUtil                         0.80                       # Data bus utilization in percentage
system.mem_ctrls.busUtilRead                     0.50                       # Data bus utilization in percentage for reads
system.mem_ctrls.busUtilWrite                    0.30                       # Data bus utilization in percentage for writes
system.mem_ctrls.avgRdQLen                       1.04                       # Average read queue length when enqueuing
system.mem_ctrls.avgWrQLen                      15.20                       # Average write queue length when enqueuing
system.mem_ctrls.readRowHits                  2150032                       # Number of row buffer hits during reads
system.mem_ctrls.writeRowHits                 1563746                       # Number of row buffer hits during writes
system.mem_ctrls.readRowHitRate                 69.94                       # Row buffer hit rate for reads
system.mem_ctrls.writeRowHitRate                85.72                       # Row buffer hit rate for writes
system.mem_ctrls.avgGap                     623703.04                       # Average gap between requests
system.mem_ctrls.pageHitRate                    75.82                       # Row buffer hit rate, read and write combined
system.mem_ctrls_0.actEnergy               4466470680                       # Energy for activate commands per rank (pJ)
system.mem_ctrls_0.preEnergy               2437062375                       # Energy for precharge commands per rank (pJ)
system.mem_ctrls_0.readEnergy             12041265600                       # Energy for read commands per rank (pJ)
system.mem_ctrls_0.writeEnergy             5920322400                       # Energy for write commands per rank (pJ)
system.mem_ctrls_0.refreshEnergy         199553858400                       # Energy for refresh commands per rank (pJ)
system.mem_ctrls_0.actBackEnergy         506990284515                       # Energy for active background per rank (pJ)
system.mem_ctrls_0.preBackEnergy         1388419818750                       # Energy for precharge background per rank (pJ)
system.mem_ctrls_0.totalEnergy           2119829082720                       # Total energy per rank (pJ)
system.mem_ctrls_0.averagePower            693.832333                       # Core power per rank (mW)
system.mem_ctrls_0.memoryStateTime::IDLE 2306586653259                       # Time in different power states
system.mem_ctrls_0.memoryStateTime::REF  102021400000                       # Time in different power states
system.mem_ctrls_0.memoryStateTime::PRE_PDN            0                       # Time in different power states
system.mem_ctrls_0.memoryStateTime::ACT  646638942741                       # Time in different power states
system.mem_ctrls_0.memoryStateTime::ACT_PDN            0                       # Time in different power states
system.mem_ctrls_1.actEnergy               4488727320                       # Energy for activate commands per rank (pJ)
system.mem_ctrls_1.preEnergy               2449206375                       # Energy for precharge commands per rank (pJ)
system.mem_ctrls_1.readEnergy             11936901600                       # Energy for read commands per rank (pJ)
system.mem_ctrls_1.writeEnergy             5900344560                       # Energy for write commands per rank (pJ)
system.mem_ctrls_1.refreshEnergy         199553858400                       # Energy for refresh commands per rank (pJ)
system.mem_ctrls_1.actBackEnergy         505819752750                       # Energy for active background per rank (pJ)
system.mem_ctrls_1.preBackEnergy         1389446601000                       # Energy for precharge background per rank (pJ)
system.mem_ctrls_1.totalEnergy           2119595392005                       # Total energy per rank (pJ)
system.mem_ctrls_1.averagePower            693.755845                       # Core power per rank (mW)
system.mem_ctrls_1.memoryStateTime::IDLE 2308293152005                       # Time in different power states
system.mem_ctrls_1.memoryStateTime::REF  102021400000                       # Time in different power states
system.mem_ctrls_1.memoryStateTime::PRE_PDN            0                       # Time in different power states
system.mem_ctrls_1.memoryStateTime::ACT  644932359245                       # Time in different power states
system.mem_ctrls_1.memoryStateTime::ACT_PDN            0                       # Time in different power states
system.cpu_voltage_domain.voltage                   1                       # Voltage in Volts
system.cpu_clk_domain.clock                       500                       # Clock period in ticks
system.cpu0.apic_clk_domain.clock                8000                       # Clock period in ticks
system.cpu0.workload.num_syscalls                 352                       # Number of system calls
system.cpu0.numCycles                      6110499982                       # number of cpu cycles simulated
system.cpu0.numWorkItemsStarted                     0                       # number of work items this cpu started
system.cpu0.numWorkItemsCompleted                   0                       # number of work items this cpu completed
system.cpu0.committedInsts                 1694442532                       # Number of instructions committed
system.cpu0.committedOps                   4840013545                       # Number of ops (including micro ops) committed
system.cpu0.num_int_alu_accesses           4566113448                       # Number of integer alu accesses
system.cpu0.num_fp_alu_accesses             116281295                       # Number of float alu accesses
system.cpu0.num_func_calls                  163074940                       # number of times a function call or return occured
system.cpu0.num_conditional_control_insts    373581154                       # number of instructions that are conditional controls
system.cpu0.num_int_insts                  4566113448                       # number of integer instructions
system.cpu0.num_fp_insts                    116281295                       # number of float instructions
system.cpu0.num_int_register_reads         9619533680                       # number of times the integer registers were read
system.cpu0.num_int_register_writes        4549821398                       # number of times the integer registers were written
system.cpu0.num_fp_register_reads           186868631                       # number of times the floating registers were read
system.cpu0.num_fp_register_writes           91388910                       # number of times the floating registers were written
system.cpu0.num_cc_register_reads          3865083453                       # number of times the CC registers were read
system.cpu0.num_cc_register_writes         1449347516                       # number of times the CC registers were written
system.cpu0.num_mem_refs                    737524043                       # number of memory refs
system.cpu0.num_load_insts                  448405103                       # Number of load instructions
system.cpu0.num_store_insts                 289118940                       # Number of store instructions
system.cpu0.num_idle_cycles                  0.002000                       # Number of idle cycles
system.cpu0.num_busy_cycles              6110499981.998000                       # Number of busy cycles
system.cpu0.not_idle_fraction                1.000000                       # Percentage of non-idle cycles
system.cpu0.idle_fraction                    0.000000                       # Percentage of idle cycles
system.cpu0.Branches                        614834132                       # Number of branches fetched
system.cpu0.op_class::No_OpClass             94599458      1.95%      1.95% # Class of executed instruction
system.cpu0.op_class::IntAlu               3509204142     72.50%     74.46% # Class of executed instruction
system.cpu0.op_class::IntMult                     490      0.00%     74.46% # Class of executed instruction
system.cpu0.op_class::IntDiv                407297348      8.42%     82.87% # Class of executed instruction
system.cpu0.op_class::FloatAdd               91388064      1.89%     84.76% # Class of executed instruction
system.cpu0.op_class::FloatCmp                      0      0.00%     84.76% # Class of executed instruction
system.cpu0.op_class::FloatCvt                      0      0.00%     84.76% # Class of executed instruction
system.cpu0.op_class::FloatMult                     0      0.00%     84.76% # Class of executed instruction
system.cpu0.op_class::FloatDiv                      0      0.00%     84.76% # Class of executed instruction
system.cpu0.op_class::FloatSqrt                     0      0.00%     84.76% # Class of executed instruction
system.cpu0.op_class::SimdAdd                       0      0.00%     84.76% # Class of executed instruction
system.cpu0.op_class::SimdAddAcc                    0      0.00%     84.76% # Class of executed instruction
system.cpu0.op_class::SimdAlu                       0      0.00%     84.76% # Class of executed instruction
system.cpu0.op_class::SimdCmp                       0      0.00%     84.76% # Class of executed instruction
system.cpu0.op_class::SimdCvt                       0      0.00%     84.76% # Class of executed instruction
system.cpu0.op_class::SimdMisc                      0      0.00%     84.76% # Class of executed instruction
system.cpu0.op_class::SimdMult                      0      0.00%     84.76% # Class of executed instruction
system.cpu0.op_class::SimdMultAcc                   0      0.00%     84.76% # Class of executed instruction
system.cpu0.op_class::SimdShift                     0      0.00%     84.76% # Class of executed instruction
system.cpu0.op_class::SimdShiftAcc                  0      0.00%     84.76% # Class of executed instruction
system.cpu0.op_class::SimdSqrt                      0      0.00%     84.76% # Class of executed instruction
system.cpu0.op_class::SimdFloatAdd                  0      0.00%     84.76% # Class of executed instruction
system.cpu0.op_class::SimdFloatAlu                  0      0.00%     84.76% # Class of executed instruction
system.cpu0.op_class::SimdFloatCmp                  0      0.00%     84.76% # Class of executed instruction
system.cpu0.op_class::SimdFloatCvt                  0      0.00%     84.76% # Class of executed instruction
system.cpu0.op_class::SimdFloatDiv                  0      0.00%     84.76% # Class of executed instruction
system.cpu0.op_class::SimdFloatMisc                 0      0.00%     84.76% # Class of executed instruction
system.cpu0.op_class::SimdFloatMult                 0      0.00%     84.76% # Class of executed instruction
system.cpu0.op_class::SimdFloatMultAcc              0      0.00%     84.76% # Class of executed instruction
system.cpu0.op_class::SimdFloatSqrt                 0      0.00%     84.76% # Class of executed instruction
system.cpu0.op_class::MemRead               448405103      9.26%     94.03% # Class of executed instruction
system.cpu0.op_class::MemWrite              289118940      5.97%    100.00% # Class of executed instruction
system.cpu0.op_class::IprAccess                     0      0.00%    100.00% # Class of executed instruction
system.cpu0.op_class::InstPrefetch                  0      0.00%    100.00% # Class of executed instruction
system.cpu0.op_class::total                4840013545                       # Class of executed instruction
system.cpu1.apic_clk_domain.clock                8000                       # Clock period in ticks
system.cpu1.numCycles                      6109411971                       # number of cpu cycles simulated
system.cpu1.numWorkItemsStarted                     0                       # number of work items this cpu started
system.cpu1.numWorkItemsCompleted                   0                       # number of work items this cpu completed
system.cpu1.committedInsts                   21006727                       # Number of instructions committed
system.cpu1.committedOps                     41857777                       # Number of ops (including micro ops) committed
system.cpu1.num_int_alu_accesses             32737317                       # Number of integer alu accesses
system.cpu1.num_fp_alu_accesses              22882035                       # Number of float alu accesses
system.cpu1.num_func_calls                      40531                       # number of times a function call or return occured
system.cpu1.num_conditional_control_insts      2310570                       # number of instructions that are conditional controls
system.cpu1.num_int_insts                    32737317                       # number of integer instructions
system.cpu1.num_fp_insts                     22882035                       # number of float instructions
system.cpu1.num_int_register_reads           63226287                       # number of times the integer registers were read
system.cpu1.num_int_register_writes          16641624                       # number of times the integer registers were written
system.cpu1.num_fp_register_reads            31860914                       # number of times the floating registers were read
system.cpu1.num_fp_register_writes           18261133                       # number of times the floating registers were written
system.cpu1.num_cc_register_reads            13883681                       # number of times the CC registers were read
system.cpu1.num_cc_register_writes           13877327                       # number of times the CC registers were written
system.cpu1.num_mem_refs                     13842900                       # number of memory refs
system.cpu1.num_load_insts                    9201655                       # Number of load instructions
system.cpu1.num_store_insts                   4641245                       # Number of store instructions
system.cpu1.num_idle_cycles              5967945660.407003                       # Number of idle cycles
system.cpu1.num_busy_cycles              141466310.592996                       # Number of busy cycles
system.cpu1.not_idle_fraction                0.023155                       # Percentage of non-idle cycles
system.cpu1.idle_fraction                    0.976845                       # Percentage of idle cycles
system.cpu1.Branches                          2371388                       # Number of branches fetched
system.cpu1.op_class::No_OpClass                    2      0.00%      0.00% # Class of executed instruction
system.cpu1.op_class::IntAlu                 18836785     45.00%     45.00% # Class of executed instruction
system.cpu1.op_class::IntMult                   57612      0.14%     45.14% # Class of executed instruction
system.cpu1.op_class::IntDiv                       14      0.00%     45.14% # Class of executed instruction
system.cpu1.op_class::FloatAdd                9120464     21.79%     66.93% # Class of executed instruction
system.cpu1.op_class::FloatCmp                      0      0.00%     66.93% # Class of executed instruction
system.cpu1.op_class::FloatCvt                      0      0.00%     66.93% # Class of executed instruction
system.cpu1.op_class::FloatMult                     0      0.00%     66.93% # Class of executed instruction
system.cpu1.op_class::FloatDiv                      0      0.00%     66.93% # Class of executed instruction
system.cpu1.op_class::FloatSqrt                     0      0.00%     66.93% # Class of executed instruction
system.cpu1.op_class::SimdAdd                       0      0.00%     66.93% # Class of executed instruction
system.cpu1.op_class::SimdAddAcc                    0      0.00%     66.93% # Class of executed instruction
system.cpu1.op_class::SimdAlu                       0      0.00%     66.93% # Class of executed instruction
system.cpu1.op_class::SimdCmp                       0      0.00%     66.93% # Class of executed instruction
system.cpu1.op_class::SimdCvt                       0      0.00%     66.93% # Class of executed instruction
system.cpu1.op_class::SimdMisc                      0      0.00%     66.93% # Class of executed instruction
system.cpu1.op_class::SimdMult                      0      0.00%     66.93% # Class of executed instruction
system.cpu1.op_class::SimdMultAcc                   0      0.00%     66.93% # Class of executed instruction
system.cpu1.op_class::SimdShift                     0      0.00%     66.93% # Class of executed instruction
system.cpu1.op_class::SimdShiftAcc                  0      0.00%     66.93% # Class of executed instruction
system.cpu1.op_class::SimdSqrt                      0      0.00%     66.93% # Class of executed instruction
system.cpu1.op_class::SimdFloatAdd                  0      0.00%     66.93% # Class of executed instruction
system.cpu1.op_class::SimdFloatAlu                  0      0.00%     66.93% # Class of executed instruction
system.cpu1.op_class::SimdFloatCmp                  0      0.00%     66.93% # Class of executed instruction
system.cpu1.op_class::SimdFloatCvt                  0      0.00%     66.93% # Class of executed instruction
system.cpu1.op_class::SimdFloatDiv                  0      0.00%     66.93% # Class of executed instruction
system.cpu1.op_class::SimdFloatMisc                 0      0.00%     66.93% # Class of executed instruction
system.cpu1.op_class::SimdFloatMult                 0      0.00%     66.93% # Class of executed instruction
system.cpu1.op_class::SimdFloatMultAcc              0      0.00%     66.93% # Class of executed instruction
system.cpu1.op_class::SimdFloatSqrt                 0      0.00%     66.93% # Class of executed instruction
system.cpu1.op_class::MemRead                 9201655     21.98%     88.91% # Class of executed instruction
system.cpu1.op_class::MemWrite                4641245     11.09%    100.00% # Class of executed instruction
system.cpu1.op_class::IprAccess                     0      0.00%    100.00% # Class of executed instruction
system.cpu1.op_class::InstPrefetch                  0      0.00%    100.00% # Class of executed instruction
system.cpu1.op_class::total                  41857777                       # Class of executed instruction
system.cpu2.apic_clk_domain.clock                8000                       # Clock period in ticks
system.cpu2.numCycles                      6109406188                       # number of cpu cycles simulated
system.cpu2.numWorkItemsStarted                     0                       # number of work items this cpu started
system.cpu2.numWorkItemsCompleted                   0                       # number of work items this cpu completed
system.cpu2.committedInsts                   21006727                       # Number of instructions committed
system.cpu2.committedOps                     41857777                       # Number of ops (including micro ops) committed
system.cpu2.num_int_alu_accesses             32737317                       # Number of integer alu accesses
system.cpu2.num_fp_alu_accesses              22882035                       # Number of float alu accesses
system.cpu2.num_func_calls                      40531                       # number of times a function call or return occured
system.cpu2.num_conditional_control_insts      2310570                       # number of instructions that are conditional controls
system.cpu2.num_int_insts                    32737317                       # number of integer instructions
system.cpu2.num_fp_insts                     22882035                       # number of float instructions
system.cpu2.num_int_register_reads           63226287                       # number of times the integer registers were read
system.cpu2.num_int_register_writes          16641624                       # number of times the integer registers were written
system.cpu2.num_fp_register_reads            31860914                       # number of times the floating registers were read
system.cpu2.num_fp_register_writes           18261133                       # number of times the floating registers were written
system.cpu2.num_cc_register_reads            13883681                       # number of times the CC registers were read
system.cpu2.num_cc_register_writes           13877327                       # number of times the CC registers were written
system.cpu2.num_mem_refs                     13842900                       # number of memory refs
system.cpu2.num_load_insts                    9201655                       # Number of load instructions
system.cpu2.num_store_insts                   4641245                       # Number of store instructions
system.cpu2.num_idle_cycles              5967946536.146922                       # Number of idle cycles
system.cpu2.num_busy_cycles              141459651.853078                       # Number of busy cycles
system.cpu2.not_idle_fraction                0.023154                       # Percentage of non-idle cycles
system.cpu2.idle_fraction                    0.976846                       # Percentage of idle cycles
system.cpu2.Branches                          2371388                       # Number of branches fetched
system.cpu2.op_class::No_OpClass                    2      0.00%      0.00% # Class of executed instruction
system.cpu2.op_class::IntAlu                 18836785     45.00%     45.00% # Class of executed instruction
system.cpu2.op_class::IntMult                   57612      0.14%     45.14% # Class of executed instruction
system.cpu2.op_class::IntDiv                       14      0.00%     45.14% # Class of executed instruction
system.cpu2.op_class::FloatAdd                9120464     21.79%     66.93% # Class of executed instruction
system.cpu2.op_class::FloatCmp                      0      0.00%     66.93% # Class of executed instruction
system.cpu2.op_class::FloatCvt                      0      0.00%     66.93% # Class of executed instruction
system.cpu2.op_class::FloatMult                     0      0.00%     66.93% # Class of executed instruction
system.cpu2.op_class::FloatDiv                      0      0.00%     66.93% # Class of executed instruction
system.cpu2.op_class::FloatSqrt                     0      0.00%     66.93% # Class of executed instruction
system.cpu2.op_class::SimdAdd                       0      0.00%     66.93% # Class of executed instruction
system.cpu2.op_class::SimdAddAcc                    0      0.00%     66.93% # Class of executed instruction
system.cpu2.op_class::SimdAlu                       0      0.00%     66.93% # Class of executed instruction
system.cpu2.op_class::SimdCmp                       0      0.00%     66.93% # Class of executed instruction
system.cpu2.op_class::SimdCvt                       0      0.00%     66.93% # Class of executed instruction
system.cpu2.op_class::SimdMisc                      0      0.00%     66.93% # Class of executed instruction
system.cpu2.op_class::SimdMult                      0      0.00%     66.93% # Class of executed instruction
system.cpu2.op_class::SimdMultAcc                   0      0.00%     66.93% # Class of executed instruction
system.cpu2.op_class::SimdShift                     0      0.00%     66.93% # Class of executed instruction
system.cpu2.op_class::SimdShiftAcc                  0      0.00%     66.93% # Class of executed instruction
system.cpu2.op_class::SimdSqrt                      0      0.00%     66.93% # Class of executed instruction
system.cpu2.op_class::SimdFloatAdd                  0      0.00%     66.93% # Class of executed instruction
system.cpu2.op_class::SimdFloatAlu                  0      0.00%     66.93% # Class of executed instruction
system.cpu2.op_class::SimdFloatCmp                  0      0.00%     66.93% # Class of executed instruction
system.cpu2.op_class::SimdFloatCvt                  0      0.00%     66.93% # Class of executed instruction
system.cpu2.op_class::SimdFloatDiv                  0      0.00%     66.93% # Class of executed instruction
system.cpu2.op_class::SimdFloatMisc                 0      0.00%     66.93% # Class of executed instruction
system.cpu2.op_class::SimdFloatMult                 0      0.00%     66.93% # Class of executed instruction
system.cpu2.op_class::SimdFloatMultAcc              0      0.00%     66.93% # Class of executed instruction
system.cpu2.op_class::SimdFloatSqrt                 0      0.00%     66.93% # Class of executed instruction
system.cpu2.op_class::MemRead                 9201655     21.98%     88.91% # Class of executed instruction
system.cpu2.op_class::MemWrite                4641245     11.09%    100.00% # Class of executed instruction
system.cpu2.op_class::IprAccess                     0      0.00%    100.00% # Class of executed instruction
system.cpu2.op_class::InstPrefetch                  0      0.00%    100.00% # Class of executed instruction
system.cpu2.op_class::total                  41857777                       # Class of executed instruction
system.cpu3.apic_clk_domain.clock                8000                       # Clock period in ticks
system.cpu3.numCycles                      6109367496                       # number of cpu cycles simulated
system.cpu3.numWorkItemsStarted                     0                       # number of work items this cpu started
system.cpu3.numWorkItemsCompleted                   0                       # number of work items this cpu completed
system.cpu3.committedInsts                   21006727                       # Number of instructions committed
system.cpu3.committedOps                     41857777                       # Number of ops (including micro ops) committed
system.cpu3.num_int_alu_accesses             32737317                       # Number of integer alu accesses
system.cpu3.num_fp_alu_accesses              22882035                       # Number of float alu accesses
system.cpu3.num_func_calls                      40531                       # number of times a function call or return occured
system.cpu3.num_conditional_control_insts      2310570                       # number of instructions that are conditional controls
system.cpu3.num_int_insts                    32737317                       # number of integer instructions
system.cpu3.num_fp_insts                     22882035                       # number of float instructions
system.cpu3.num_int_register_reads           63226287                       # number of times the integer registers were read
system.cpu3.num_int_register_writes          16641624                       # number of times the integer registers were written
system.cpu3.num_fp_register_reads            31860914                       # number of times the floating registers were read
system.cpu3.num_fp_register_writes           18261133                       # number of times the floating registers were written
system.cpu3.num_cc_register_reads            13883681                       # number of times the CC registers were read
system.cpu3.num_cc_register_writes           13877327                       # number of times the CC registers were written
system.cpu3.num_mem_refs                     13842900                       # number of memory refs
system.cpu3.num_load_insts                    9201655                       # Number of load instructions
system.cpu3.num_store_insts                   4641245                       # Number of store instructions
system.cpu3.num_idle_cycles              5967948046.750838                       # Number of idle cycles
system.cpu3.num_busy_cycles              141419449.249162                       # Number of busy cycles
system.cpu3.not_idle_fraction                0.023148                       # Percentage of non-idle cycles
system.cpu3.idle_fraction                    0.976852                       # Percentage of idle cycles
system.cpu3.Branches                          2371388                       # Number of branches fetched
system.cpu3.op_class::No_OpClass                    2      0.00%      0.00% # Class of executed instruction
system.cpu3.op_class::IntAlu                 18836785     45.00%     45.00% # Class of executed instruction
system.cpu3.op_class::IntMult                   57612      0.14%     45.14% # Class of executed instruction
system.cpu3.op_class::IntDiv                       14      0.00%     45.14% # Class of executed instruction
system.cpu3.op_class::FloatAdd                9120464     21.79%     66.93% # Class of executed instruction
system.cpu3.op_class::FloatCmp                      0      0.00%     66.93% # Class of executed instruction
system.cpu3.op_class::FloatCvt                      0      0.00%     66.93% # Class of executed instruction
system.cpu3.op_class::FloatMult                     0      0.00%     66.93% # Class of executed instruction
system.cpu3.op_class::FloatDiv                      0      0.00%     66.93% # Class of executed instruction
system.cpu3.op_class::FloatSqrt                     0      0.00%     66.93% # Class of executed instruction
system.cpu3.op_class::SimdAdd                       0      0.00%     66.93% # Class of executed instruction
system.cpu3.op_class::SimdAddAcc                    0      0.00%     66.93% # Class of executed instruction
system.cpu3.op_class::SimdAlu                       0      0.00%     66.93% # Class of executed instruction
system.cpu3.op_class::SimdCmp                       0      0.00%     66.93% # Class of executed instruction
system.cpu3.op_class::SimdCvt                       0      0.00%     66.93% # Class of executed instruction
system.cpu3.op_class::SimdMisc                      0      0.00%     66.93% # Class of executed instruction
system.cpu3.op_class::SimdMult                      0      0.00%     66.93% # Class of executed instruction
system.cpu3.op_class::SimdMultAcc                   0      0.00%     66.93% # Class of executed instruction
system.cpu3.op_class::SimdShift                     0      0.00%     66.93% # Class of executed instruction
system.cpu3.op_class::SimdShiftAcc                  0      0.00%     66.93% # Class of executed instruction
system.cpu3.op_class::SimdSqrt                      0      0.00%     66.93% # Class of executed instruction
system.cpu3.op_class::SimdFloatAdd                  0      0.00%     66.93% # Class of executed instruction
system.cpu3.op_class::SimdFloatAlu                  0      0.00%     66.93% # Class of executed instruction
system.cpu3.op_class::SimdFloatCmp                  0      0.00%     66.93% # Class of executed instruction
system.cpu3.op_class::SimdFloatCvt                  0      0.00%     66.93% # Class of executed instruction
system.cpu3.op_class::SimdFloatDiv                  0      0.00%     66.93% # Class of executed instruction
system.cpu3.op_class::SimdFloatMisc                 0      0.00%     66.93% # Class of executed instruction
system.cpu3.op_class::SimdFloatMult                 0      0.00%     66.93% # Class of executed instruction
system.cpu3.op_class::SimdFloatMultAcc              0      0.00%     66.93% # Class of executed instruction
system.cpu3.op_class::SimdFloatSqrt                 0      0.00%     66.93% # Class of executed instruction
system.cpu3.op_class::MemRead                 9201655     21.98%     88.91% # Class of executed instruction
system.cpu3.op_class::MemWrite                4641245     11.09%    100.00% # Class of executed instruction
system.cpu3.op_class::IprAccess                     0      0.00%    100.00% # Class of executed instruction
system.cpu3.op_class::InstPrefetch                  0      0.00%    100.00% # Class of executed instruction
system.cpu3.op_class::total                  41857777                       # Class of executed instruction
system.cpu4.apic_clk_domain.clock                8000                       # Clock period in ticks
system.cpu4.numCycles                      6109412767                       # number of cpu cycles simulated
system.cpu4.numWorkItemsStarted                     0                       # number of work items this cpu started
system.cpu4.numWorkItemsCompleted                   0                       # number of work items this cpu completed
system.cpu4.committedInsts                   21006727                       # Number of instructions committed
system.cpu4.committedOps                     41857777                       # Number of ops (including micro ops) committed
system.cpu4.num_int_alu_accesses             32737317                       # Number of integer alu accesses
system.cpu4.num_fp_alu_accesses              22882035                       # Number of float alu accesses
system.cpu4.num_func_calls                      40531                       # number of times a function call or return occured
system.cpu4.num_conditional_control_insts      2310570                       # number of instructions that are conditional controls
system.cpu4.num_int_insts                    32737317                       # number of integer instructions
system.cpu4.num_fp_insts                     22882035                       # number of float instructions
system.cpu4.num_int_register_reads           63226287                       # number of times the integer registers were read
system.cpu4.num_int_register_writes          16641624                       # number of times the integer registers were written
system.cpu4.num_fp_register_reads            31860914                       # number of times the floating registers were read
system.cpu4.num_fp_register_writes           18261133                       # number of times the floating registers were written
system.cpu4.num_cc_register_reads            13883681                       # number of times the CC registers were read
system.cpu4.num_cc_register_writes           13877327                       # number of times the CC registers were written
system.cpu4.num_mem_refs                     13842900                       # number of memory refs
system.cpu4.num_load_insts                    9201655                       # Number of load instructions
system.cpu4.num_store_insts                   4641245                       # Number of store instructions
system.cpu4.num_idle_cycles              5967947790.734515                       # Number of idle cycles
system.cpu4.num_busy_cycles              141464976.265485                       # Number of busy cycles
system.cpu4.not_idle_fraction                0.023155                       # Percentage of non-idle cycles
system.cpu4.idle_fraction                    0.976845                       # Percentage of idle cycles
system.cpu4.Branches                          2371388                       # Number of branches fetched
system.cpu4.op_class::No_OpClass                    2      0.00%      0.00% # Class of executed instruction
system.cpu4.op_class::IntAlu                 18836785     45.00%     45.00% # Class of executed instruction
system.cpu4.op_class::IntMult                   57612      0.14%     45.14% # Class of executed instruction
system.cpu4.op_class::IntDiv                       14      0.00%     45.14% # Class of executed instruction
system.cpu4.op_class::FloatAdd                9120464     21.79%     66.93% # Class of executed instruction
system.cpu4.op_class::FloatCmp                      0      0.00%     66.93% # Class of executed instruction
system.cpu4.op_class::FloatCvt                      0      0.00%     66.93% # Class of executed instruction
system.cpu4.op_class::FloatMult                     0      0.00%     66.93% # Class of executed instruction
system.cpu4.op_class::FloatDiv                      0      0.00%     66.93% # Class of executed instruction
system.cpu4.op_class::FloatSqrt                     0      0.00%     66.93% # Class of executed instruction
system.cpu4.op_class::SimdAdd                       0      0.00%     66.93% # Class of executed instruction
system.cpu4.op_class::SimdAddAcc                    0      0.00%     66.93% # Class of executed instruction
system.cpu4.op_class::SimdAlu                       0      0.00%     66.93% # Class of executed instruction
system.cpu4.op_class::SimdCmp                       0      0.00%     66.93% # Class of executed instruction
system.cpu4.op_class::SimdCvt                       0      0.00%     66.93% # Class of executed instruction
system.cpu4.op_class::SimdMisc                      0      0.00%     66.93% # Class of executed instruction
system.cpu4.op_class::SimdMult                      0      0.00%     66.93% # Class of executed instruction
system.cpu4.op_class::SimdMultAcc                   0      0.00%     66.93% # Class of executed instruction
system.cpu4.op_class::SimdShift                     0      0.00%     66.93% # Class of executed instruction
system.cpu4.op_class::SimdShiftAcc                  0      0.00%     66.93% # Class of executed instruction
system.cpu4.op_class::SimdSqrt                      0      0.00%     66.93% # Class of executed instruction
system.cpu4.op_class::SimdFloatAdd                  0      0.00%     66.93% # Class of executed instruction
system.cpu4.op_class::SimdFloatAlu                  0      0.00%     66.93% # Class of executed instruction
system.cpu4.op_class::SimdFloatCmp                  0      0.00%     66.93% # Class of executed instruction
system.cpu4.op_class::SimdFloatCvt                  0      0.00%     66.93% # Class of executed instruction
system.cpu4.op_class::SimdFloatDiv                  0      0.00%     66.93% # Class of executed instruction
system.cpu4.op_class::SimdFloatMisc                 0      0.00%     66.93% # Class of executed instruction
system.cpu4.op_class::SimdFloatMult                 0      0.00%     66.93% # Class of executed instruction
system.cpu4.op_class::SimdFloatMultAcc              0      0.00%     66.93% # Class of executed instruction
system.cpu4.op_class::SimdFloatSqrt                 0      0.00%     66.93% # Class of executed instruction
system.cpu4.op_class::MemRead                 9201655     21.98%     88.91% # Class of executed instruction
system.cpu4.op_class::MemWrite                4641245     11.09%    100.00% # Class of executed instruction
system.cpu4.op_class::IprAccess                     0      0.00%    100.00% # Class of executed instruction
system.cpu4.op_class::InstPrefetch                  0      0.00%    100.00% # Class of executed instruction
system.cpu4.op_class::total                  41857777                       # Class of executed instruction
system.cpu5.apic_clk_domain.clock                8000                       # Clock period in ticks
system.cpu5.numCycles                      6110113884                       # number of cpu cycles simulated
system.cpu5.numWorkItemsStarted                     0                       # number of work items this cpu started
system.cpu5.numWorkItemsCompleted                   0                       # number of work items this cpu completed
system.cpu5.committedInsts                   21006727                       # Number of instructions committed
system.cpu5.committedOps                     41857777                       # Number of ops (including micro ops) committed
system.cpu5.num_int_alu_accesses             32737317                       # Number of integer alu accesses
system.cpu5.num_fp_alu_accesses              22882035                       # Number of float alu accesses
system.cpu5.num_func_calls                      40531                       # number of times a function call or return occured
system.cpu5.num_conditional_control_insts      2310570                       # number of instructions that are conditional controls
system.cpu5.num_int_insts                    32737317                       # number of integer instructions
system.cpu5.num_fp_insts                     22882035                       # number of float instructions
system.cpu5.num_int_register_reads           63226287                       # number of times the integer registers were read
system.cpu5.num_int_register_writes          16641624                       # number of times the integer registers were written
system.cpu5.num_fp_register_reads            31860914                       # number of times the floating registers were read
system.cpu5.num_fp_register_writes           18261133                       # number of times the floating registers were written
system.cpu5.num_cc_register_reads            13883681                       # number of times the CC registers were read
system.cpu5.num_cc_register_writes           13877327                       # number of times the CC registers were written
system.cpu5.num_mem_refs                     13842900                       # number of memory refs
system.cpu5.num_load_insts                    9201655                       # Number of load instructions
system.cpu5.num_store_insts                   4641245                       # Number of store instructions
system.cpu5.num_idle_cycles              5967932463.441770                       # Number of idle cycles
system.cpu5.num_busy_cycles              142181420.558230                       # Number of busy cycles
system.cpu5.not_idle_fraction                0.023270                       # Percentage of non-idle cycles
system.cpu5.idle_fraction                    0.976730                       # Percentage of idle cycles
system.cpu5.Branches                          2371388                       # Number of branches fetched
system.cpu5.op_class::No_OpClass                    2      0.00%      0.00% # Class of executed instruction
system.cpu5.op_class::IntAlu                 18836785     45.00%     45.00% # Class of executed instruction
system.cpu5.op_class::IntMult                   57612      0.14%     45.14% # Class of executed instruction
system.cpu5.op_class::IntDiv                       14      0.00%     45.14% # Class of executed instruction
system.cpu5.op_class::FloatAdd                9120464     21.79%     66.93% # Class of executed instruction
system.cpu5.op_class::FloatCmp                      0      0.00%     66.93% # Class of executed instruction
system.cpu5.op_class::FloatCvt                      0      0.00%     66.93% # Class of executed instruction
system.cpu5.op_class::FloatMult                     0      0.00%     66.93% # Class of executed instruction
system.cpu5.op_class::FloatDiv                      0      0.00%     66.93% # Class of executed instruction
system.cpu5.op_class::FloatSqrt                     0      0.00%     66.93% # Class of executed instruction
system.cpu5.op_class::SimdAdd                       0      0.00%     66.93% # Class of executed instruction
system.cpu5.op_class::SimdAddAcc                    0      0.00%     66.93% # Class of executed instruction
system.cpu5.op_class::SimdAlu                       0      0.00%     66.93% # Class of executed instruction
system.cpu5.op_class::SimdCmp                       0      0.00%     66.93% # Class of executed instruction
system.cpu5.op_class::SimdCvt                       0      0.00%     66.93% # Class of executed instruction
system.cpu5.op_class::SimdMisc                      0      0.00%     66.93% # Class of executed instruction
system.cpu5.op_class::SimdMult                      0      0.00%     66.93% # Class of executed instruction
system.cpu5.op_class::SimdMultAcc                   0      0.00%     66.93% # Class of executed instruction
system.cpu5.op_class::SimdShift                     0      0.00%     66.93% # Class of executed instruction
system.cpu5.op_class::SimdShiftAcc                  0      0.00%     66.93% # Class of executed instruction
system.cpu5.op_class::SimdSqrt                      0      0.00%     66.93% # Class of executed instruction
system.cpu5.op_class::SimdFloatAdd                  0      0.00%     66.93% # Class of executed instruction
system.cpu5.op_class::SimdFloatAlu                  0      0.00%     66.93% # Class of executed instruction
system.cpu5.op_class::SimdFloatCmp                  0      0.00%     66.93% # Class of executed instruction
system.cpu5.op_class::SimdFloatCvt                  0      0.00%     66.93% # Class of executed instruction
system.cpu5.op_class::SimdFloatDiv                  0      0.00%     66.93% # Class of executed instruction
system.cpu5.op_class::SimdFloatMisc                 0      0.00%     66.93% # Class of executed instruction
system.cpu5.op_class::SimdFloatMult                 0      0.00%     66.93% # Class of executed instruction
system.cpu5.op_class::SimdFloatMultAcc              0      0.00%     66.93% # Class of executed instruction
system.cpu5.op_class::SimdFloatSqrt                 0      0.00%     66.93% # Class of executed instruction
system.cpu5.op_class::MemRead                 9201655     21.98%     88.91% # Class of executed instruction
system.cpu5.op_class::MemWrite                4641245     11.09%    100.00% # Class of executed instruction
system.cpu5.op_class::IprAccess                     0      0.00%    100.00% # Class of executed instruction
system.cpu5.op_class::InstPrefetch                  0      0.00%    100.00% # Class of executed instruction
system.cpu5.op_class::total                  41857777                       # Class of executed instruction
system.cpu6.apic_clk_domain.clock                8000                       # Clock period in ticks
system.cpu6.numCycles                      6109413749                       # number of cpu cycles simulated
system.cpu6.numWorkItemsStarted                     0                       # number of work items this cpu started
system.cpu6.numWorkItemsCompleted                   0                       # number of work items this cpu completed
system.cpu6.committedInsts                   21006727                       # Number of instructions committed
system.cpu6.committedOps                     41857777                       # Number of ops (including micro ops) committed
system.cpu6.num_int_alu_accesses             32737317                       # Number of integer alu accesses
system.cpu6.num_fp_alu_accesses              22882035                       # Number of float alu accesses
system.cpu6.num_func_calls                      40531                       # number of times a function call or return occured
system.cpu6.num_conditional_control_insts      2310570                       # number of instructions that are conditional controls
system.cpu6.num_int_insts                    32737317                       # number of integer instructions
system.cpu6.num_fp_insts                     22882035                       # number of float instructions
system.cpu6.num_int_register_reads           63226287                       # number of times the integer registers were read
system.cpu6.num_int_register_writes          16641624                       # number of times the integer registers were written
system.cpu6.num_fp_register_reads            31860914                       # number of times the floating registers were read
system.cpu6.num_fp_register_writes           18261133                       # number of times the floating registers were written
system.cpu6.num_cc_register_reads            13883681                       # number of times the CC registers were read
system.cpu6.num_cc_register_writes           13877327                       # number of times the CC registers were written
system.cpu6.num_mem_refs                     13842900                       # number of memory refs
system.cpu6.num_load_insts                    9201655                       # Number of load instructions
system.cpu6.num_store_insts                   4641245                       # Number of store instructions
system.cpu6.num_idle_cycles              5967949605.843894                       # Number of idle cycles
system.cpu6.num_busy_cycles              141464143.156106                       # Number of busy cycles
system.cpu6.not_idle_fraction                0.023155                       # Percentage of non-idle cycles
system.cpu6.idle_fraction                    0.976845                       # Percentage of idle cycles
system.cpu6.Branches                          2371388                       # Number of branches fetched
system.cpu6.op_class::No_OpClass                    2      0.00%      0.00% # Class of executed instruction
system.cpu6.op_class::IntAlu                 18836785     45.00%     45.00% # Class of executed instruction
system.cpu6.op_class::IntMult                   57612      0.14%     45.14% # Class of executed instruction
system.cpu6.op_class::IntDiv                       14      0.00%     45.14% # Class of executed instruction
system.cpu6.op_class::FloatAdd                9120464     21.79%     66.93% # Class of executed instruction
system.cpu6.op_class::FloatCmp                      0      0.00%     66.93% # Class of executed instruction
system.cpu6.op_class::FloatCvt                      0      0.00%     66.93% # Class of executed instruction
system.cpu6.op_class::FloatMult                     0      0.00%     66.93% # Class of executed instruction
system.cpu6.op_class::FloatDiv                      0      0.00%     66.93% # Class of executed instruction
system.cpu6.op_class::FloatSqrt                     0      0.00%     66.93% # Class of executed instruction
system.cpu6.op_class::SimdAdd                       0      0.00%     66.93% # Class of executed instruction
system.cpu6.op_class::SimdAddAcc                    0      0.00%     66.93% # Class of executed instruction
system.cpu6.op_class::SimdAlu                       0      0.00%     66.93% # Class of executed instruction
system.cpu6.op_class::SimdCmp                       0      0.00%     66.93% # Class of executed instruction
system.cpu6.op_class::SimdCvt                       0      0.00%     66.93% # Class of executed instruction
system.cpu6.op_class::SimdMisc                      0      0.00%     66.93% # Class of executed instruction
system.cpu6.op_class::SimdMult                      0      0.00%     66.93% # Class of executed instruction
system.cpu6.op_class::SimdMultAcc                   0      0.00%     66.93% # Class of executed instruction
system.cpu6.op_class::SimdShift                     0      0.00%     66.93% # Class of executed instruction
system.cpu6.op_class::SimdShiftAcc                  0      0.00%     66.93% # Class of executed instruction
system.cpu6.op_class::SimdSqrt                      0      0.00%     66.93% # Class of executed instruction
system.cpu6.op_class::SimdFloatAdd                  0      0.00%     66.93% # Class of executed instruction
system.cpu6.op_class::SimdFloatAlu                  0      0.00%     66.93% # Class of executed instruction
system.cpu6.op_class::SimdFloatCmp                  0      0.00%     66.93% # Class of executed instruction
system.cpu6.op_class::SimdFloatCvt                  0      0.00%     66.93% # Class of executed instruction
system.cpu6.op_class::SimdFloatDiv                  0      0.00%     66.93% # Class of executed instruction
system.cpu6.op_class::SimdFloatMisc                 0      0.00%     66.93% # Class of executed instruction
system.cpu6.op_class::SimdFloatMult                 0      0.00%     66.93% # Class of executed instruction
system.cpu6.op_class::SimdFloatMultAcc              0      0.00%     66.93% # Class of executed instruction
system.cpu6.op_class::SimdFloatSqrt                 0      0.00%     66.93% # Class of executed instruction
system.cpu6.op_class::MemRead                 9201655     21.98%     88.91% # Class of executed instruction
system.cpu6.op_class::MemWrite                4641245     11.09%    100.00% # Class of executed instruction
system.cpu6.op_class::IprAccess                     0      0.00%    100.00% # Class of executed instruction
system.cpu6.op_class::InstPrefetch                  0      0.00%    100.00% # Class of executed instruction
system.cpu6.op_class::total                  41857777                       # Class of executed instruction
system.cpu7.apic_clk_domain.clock                8000                       # Clock period in ticks
system.cpu7.numCycles                      6109409423                       # number of cpu cycles simulated
system.cpu7.numWorkItemsStarted                     0                       # number of work items this cpu started
system.cpu7.numWorkItemsCompleted                   0                       # number of work items this cpu completed
[...]
system.ruby.L1Cache_Controller.MM.Fwd_GETS::total       676318                      
system.ruby.L1Cache_Controller.IS.Inv    |           0      0.00%      0.00% |         401     14.92%     14.92% |         491     18.27%     33.20% |         287     10.68%     43.88% |         434     16.15%     60.03% |           0      0.00%     60.03% |         381     14.18%     74.21% |         315     11.72%     85.93% |         378     14.07%    100.00%
system.ruby.L1Cache_Controller.IS.Inv::total         2687                      
system.ruby.L1Cache_Controller.IS.Data_Exclusive |        7545      0.17%      0.17% |      541588     12.04%     12.21% |      574698     12.78%     24.99% |      552850     12.29%     37.28% |      546735     12.16%     49.44% |      586828     13.05%     62.49% |      595525     13.24%     75.73% |      526565     11.71%     87.44% |      564692     12.56%    100.00%
system.ruby.L1Cache_Controller.IS.Data_Exclusive::total      4497026                      
system.ruby.L1Cache_Controller.IS.DataS_fromL1 |          82      0.01%      0.01% |      110387     16.32%     16.33% |       90453     13.37%     29.70% |       94358     13.95%     43.65% |      100353     14.84%     58.49% |       48936      7.23%     65.72% |       46294      6.84%     72.57% |      113138     16.73%     89.29% |       72427     10.71%    100.00%
system.ruby.L1Cache_Controller.IS.DataS_fromL1::total       676428                      
system.ruby.L1Cache_Controller.IS.Data_all_Acks |          13      0.01%      0.01% |        9069      6.01%      6.02% |       30101     19.96%     25.98% |       44924     29.79%     55.78% |       19830     13.15%     68.93% |         498      0.33%     69.26% |        8507      5.64%     74.90% |        6349      4.21%     79.11% |       31500     20.89%    100.00%
system.ruby.L1Cache_Controller.IS.Data_all_Acks::total       150791                      
system.ruby.L1Cache_Controller.IM.Data   |           0      0.00%      0.00% |        1155     13.46%     13.46% |        1500     17.48%     30.95% |        1484     17.30%     48.25% |        1527     17.80%     66.04% |           0      0.00%     66.04% |         774      9.02%     75.07% |         605      7.05%     82.12% |        1534     17.88%    100.00%
system.ruby.L1Cache_Controller.IM.Data::total         8579                      
system.ruby.L1Cache_Controller.IM.Data_all_Acks |     2288249     89.48%     89.48% |       15770      0.62%     90.10% |       41060      1.61%     91.70% |       69300      2.71%     94.41% |       36591      1.43%     95.84% |          14      0.00%     95.84% |       19487      0.76%     96.61% |       14399      0.56%     97.17% |       72396      2.83%    100.00%
system.ruby.L1Cache_Controller.IM.Data_all_Acks::total      2557266                      
system.ruby.L1Cache_Controller.IM.Ack    |           0      0.00%      0.00% |         172     13.85%     13.85% |         207     16.67%     30.52% |         191     15.38%     45.89% |         180     14.49%     60.39% |           0      0.00%     60.39% |         181     14.57%     74.96% |         157     12.64%     87.60% |         154     12.40%    100.00%
system.ruby.L1Cache_Controller.IM.Ack::total         1242                      
system.ruby.L1Cache_Controller.SM.Inv    |           0      0.00%      0.00% |        9451      4.70%      4.70% |       27766     13.81%     18.52% |       57195     28.46%     46.97% |       26018     12.94%     59.92% |           0      0.00%     59.92% |       13100      6.52%     66.43% |        9959      4.95%     71.39% |       57511     28.61%    100.00%
system.ruby.L1Cache_Controller.SM.Inv::total       201000                      
system.ruby.L1Cache_Controller.SM.Ack    |         120      0.02%      0.02% |      126112     15.83%     15.85% |      129360     16.24%     32.09% |      129618     16.27%     48.36% |      117743     14.78%     63.14% |       48933      6.14%     69.29% |       50466      6.34%     75.62% |      115259     14.47%     90.09% |       78915      9.91%    100.00%
system.ruby.L1Cache_Controller.SM.Ack::total       796526                      
system.ruby.L1Cache_Controller.SM.Ack_all |          81      0.01%      0.01% |      112673     15.99%     16.00% |      102532     14.55%     30.56% |      107660     15.28%     45.84% |      103235     14.65%     60.49% |       48933      6.95%     67.44% |       45494      6.46%     73.89% |      112333     15.94%     89.84% |       71608     10.16%    100.00%
system.ruby.L1Cache_Controller.SM.Ack_all::total       704549                      
system.ruby.L1Cache_Controller.IS_I.Data_all_Acks |           0      0.00%      0.00% |         401     14.92%     14.92% |         491     18.27%     33.20% |         287     10.68%     43.88% |         434     16.15%     60.03% |           0      0.00%     60.03% |         381     14.18%     74.21% |         315     11.72%     85.93% |         378     14.07%    100.00%
system.ruby.L1Cache_Controller.IS_I.Data_all_Acks::total         2687                      
system.ruby.L1Cache_Controller.M_I.Inv   |           0      0.00%      0.00% |           1     33.33%     33.33% |           0      0.00%     33.33% |           0      0.00%     33.33% |           1     33.33%     66.67% |           0      0.00%     66.67% |           1     33.33%    100.00% |           0      0.00%    100.00% |           0      0.00%    100.00%
system.ruby.L1Cache_Controller.M_I.Inv::total            3                      
system.ruby.L1Cache_Controller.M_I.Fwd_GETS |           0      0.00%      0.00% |           4     30.77%     30.77% |           0      0.00%     30.77% |           0      0.00%     30.77% |           0      0.00%     30.77% |           0      0.00%     30.77% |           4     30.77%     61.54% |           5     38.46%    100.00% |           0      0.00%    100.00%
system.ruby.L1Cache_Controller.M_I.Fwd_GETS::total           13                      
system.ruby.L1Cache_Controller.M_I.WB_Ack |     2286702     36.05%     36.05% |      483463      7.62%     43.67% |      514643      8.11%     51.79% |      490444      7.73%     59.52% |      528775      8.34%     67.85% |      549817      8.67%     76.52% |      484661      7.64%     84.16% |      494878      7.80%     91.97% |      509634      8.03%    100.00%
system.ruby.L1Cache_Controller.M_I.WB_Ack::total      6343017                      
system.ruby.L1Cache_Controller.SINK_WB_ACK.WB_Ack |           0      0.00%      0.00% |           5     31.25%     31.25% |           0      0.00%     31.25% |           0      0.00%     31.25% |           1      6.25%     37.50% |           0      0.00%     37.50% |           5     31.25%     68.75% |           5     31.25%    100.00% |           0      0.00%    100.00%
system.ruby.L1Cache_Controller.SINK_WB_ACK.WB_Ack::total           16                      
system.ruby.L1Cache_Controller.S_IL0.Store |           0      0.00%      0.00% |        4972      9.02%      9.02% |       10370     18.81%     27.83% |       10205     18.51%     46.35% |        8405     15.25%     61.60% |           0      0.00%     61.60% |        5138      9.32%     70.92% |        3549      6.44%     77.36% |       12480     22.64%    100.00%
system.ruby.L1Cache_Controller.S_IL0.Store::total        55119                      
system.ruby.L1Cache_Controller.S_IL0.L0_Invalidate_Own |           5      0.14%      0.14% |         441     12.43%     12.57% |         418     11.78%     24.34% |         450     12.68%     37.02% |         455     12.82%     49.85% |         440     12.40%     62.24% |         450     12.68%     74.92% |         447     12.60%     87.52% |         443     12.48%    100.00%
system.ruby.L1Cache_Controller.S_IL0.L0_Invalidate_Own::total         3549                      
system.ruby.L1Cache_Controller.S_IL0.L0_Invalidate_Else |           3      0.00%      0.00% |        7838      9.79%      9.80% |       15514     19.38%     29.18% |       14013     17.51%     46.68% |       12692     15.86%     62.54% |          39      0.05%     62.59% |        7530      9.41%     71.99% |        5323      6.65%     78.64% |       17096     21.36%    100.00%
system.ruby.L1Cache_Controller.S_IL0.L0_Invalidate_Else::total        80048                      
system.ruby.L1Cache_Controller.S_IL0.L0_Ack |           8      0.01%      0.01% |        8279      9.90%      9.91% |       15932     19.06%     28.97% |       14463     17.30%     46.27% |       13147     15.73%     62.00% |         479      0.57%     62.57% |        7980      9.55%     72.12% |        5770      6.90%     79.02% |       17539     20.98%    100.00%
system.ruby.L1Cache_Controller.S_IL0.L0_Ack::total        83597                      
system.ruby.L1Cache_Controller.E_IL0.L0_DataAck |         845      1.21%      1.21% |        4433      6.36%      7.57% |        4670      6.70%     14.28% |       36103     51.81%     66.09% |        6582      9.45%     75.53% |        1824      2.62%     78.15% |        3112      4.47%     82.62% |        6834      9.81%     92.42% |        5280      7.58%    100.00%
system.ruby.L1Cache_Controller.E_IL0.L0_DataAck::total        69683                      
system.ruby.L1Cache_Controller.E_IL0.L0_Invalidate_Own |        5780     18.11%     18.11% |        3156      9.89%     28.00% |        3162      9.91%     37.91% |        3479     10.90%     48.81% |        3456     10.83%     59.64% |        3177      9.96%     69.60% |        3182      9.97%     79.57% |        3097      9.70%     89.27% |        3423     10.73%    100.00%
system.ruby.L1Cache_Controller.E_IL0.L0_Invalidate_Own::total        31912                      
system.ruby.L1Cache_Controller.E_IL0.L0_Invalidate_Else |          91      0.16%      0.16% |        3353      5.75%      5.91% |        3005      5.15%     11.06% |       35022     60.07%     71.13% |        5654      9.70%     80.83% |         309      0.53%     81.36% |        1689      2.90%     84.25% |        5377      9.22%     93.48% |        3803      6.52%    100.00%
system.ruby.L1Cache_Controller.E_IL0.L0_Invalidate_Else::total        58303                      
system.ruby.L1Cache_Controller.E_IL0.L0_Ack |        5026     24.48%     24.48% |        2076     10.11%     34.59% |        1497      7.29%     41.88% |        2398     11.68%     53.56% |        2528     12.31%     65.87% |        1662      8.09%     73.97% |        1759      8.57%     82.53% |        1640      7.99%     90.52% |        1946      9.48%    100.00%
system.ruby.L1Cache_Controller.E_IL0.L0_Ack::total        20532                      
system.ruby.L1Cache_Controller.M_IL0.WriteBack |           0      0.00%      0.00% |           1     50.00%     50.00% |           0      0.00%     50.00% |           0      0.00%     50.00% |           0      0.00%     50.00% |           0      0.00%     50.00% |           0      0.00%     50.00% |           1     50.00%    100.00% |           0      0.00%    100.00%
system.ruby.L1Cache_Controller.M_IL0.WriteBack::total            2                      
system.ruby.L1Cache_Controller.M_IL0.L0_DataAck |        1878      0.37%      0.37% |       42214      8.29%      8.66% |      113916     22.37%     31.03% |      117289     23.04%     54.07% |       71174     13.98%     68.05% |        1685      0.33%     68.38% |       32967      6.47%     74.85% |       21936      4.31%     79.16% |      106111     20.84%    100.00%
system.ruby.L1Cache_Controller.M_IL0.L0_DataAck::total       509170                      
system.ruby.L1Cache_Controller.M_IL0.L0_Invalidate_Own |         880     90.35%     90.35% |           6      0.62%     90.97% |           6      0.62%     91.58% |          34      3.49%     95.07% |           4      0.41%     95.48% |           4      0.41%     95.89% |           7      0.72%     96.61% |          21      2.16%     98.77% |          12      1.23%    100.00%
system.ruby.L1Cache_Controller.M_IL0.L0_Invalidate_Own::total          974                      
system.ruby.L1Cache_Controller.M_IL0.L0_Invalidate_Else |        1014      0.20%      0.20% |       42520      8.34%      8.54% |      114090     22.37%     30.91% |      117498     23.04%     53.95% |       71330     13.99%     67.94% |        2021      0.40%     68.34% |       33074      6.49%     74.83% |       21987      4.31%     79.14% |      106385     20.86%    100.00%
system.ruby.L1Cache_Controller.M_IL0.L0_Invalidate_Else::total       509919                      
system.ruby.L1Cache_Controller.M_IL0.L0_Ack |          16      0.93%      0.93% |         311     18.07%     19.00% |         180     10.46%     29.46% |         243     14.12%     43.58% |         160      9.30%     52.88% |         340     19.76%     72.63% |         114      6.62%     79.26% |          71      4.13%     83.38% |         286     16.62%    100.00%
system.ruby.L1Cache_Controller.M_IL0.L0_Ack::total         1721                      
system.ruby.L1Cache_Controller.MM_IL0.Fwd_GETS |           0      0.00%      0.00% |           1     50.00%     50.00% |           0      0.00%     50.00% |           0      0.00%     50.00% |           0      0.00%     50.00% |           0      0.00%     50.00% |           0      0.00%     50.00% |           1     50.00%    100.00% |           0      0.00%    100.00%
system.ruby.L1Cache_Controller.MM_IL0.Fwd_GETS::total            2                      
system.ruby.L1Cache_Controller.MM_IL0.L0_Ack |           0      0.00%      0.00% |           1     50.00%     50.00% |           0      0.00%     50.00% |           0      0.00%     50.00% |           0      0.00%     50.00% |           0      0.00%     50.00% |           0      0.00%     50.00% |           1     50.00%    100.00% |           0      0.00%    100.00%
system.ruby.L1Cache_Controller.MM_IL0.L0_Ack::total            2                      
system.ruby.L2Cache_Controller.L1_GETS        5604087      0.00%      0.00%
system.ruby.L2Cache_Controller.L1_GETX        2774730      0.00%      0.00%
system.ruby.L2Cache_Controller.L1_UPGRADE       896940      0.00%      0.00%
system.ruby.L2Cache_Controller.L1_PUTX        6343043      0.00%      0.00%
system.ruby.L2Cache_Controller.L1_PUTX_old            6      0.00%      0.00%
system.ruby.L2Cache_Controller.L2_Replacement      1560025      0.00%      0.00%
system.ruby.L2Cache_Controller.L2_Replacement_clean       858972      0.00%      0.00%
system.ruby.L2Cache_Controller.Mem_Data       3074357      0.00%      0.00%
system.ruby.L2Cache_Controller.Mem_Ack        2418997      0.00%      0.00%
system.ruby.L2Cache_Controller.WB_Data         961278      0.00%      0.00%
system.ruby.L2Cache_Controller.WB_Data_clean       136443      0.00%      0.00%
system.ruby.L2Cache_Controller.Ack                298      0.00%      0.00%
system.ruby.L2Cache_Controller.Ack_all           3165      0.00%      0.00%
system.ruby.L2Cache_Controller.Unblock         676428      0.00%      0.00%
system.ruby.L2Cache_Controller.Exclusive_Unblock      7758841      0.00%      0.00%
system.ruby.L2Cache_Controller.NP.L1_GETS      1714939      0.00%      0.00%
system.ruby.L2Cache_Controller.NP.L1_GETX      1359418      0.00%      0.00%
system.ruby.L2Cache_Controller.NP.L1_PUTX_old            3      0.00%      0.00%
system.ruby.L2Cache_Controller.SS.L1_GETS        89097      0.00%      0.00%
system.ruby.L2Cache_Controller.SS.L1_GETX         8741      0.00%      0.00%
system.ruby.L2Cache_Controller.SS.L1_UPGRADE       695970      0.00%      0.00%
system.ruby.L2Cache_Controller.SS.L1_PUTX           13      0.00%      0.00%
system.ruby.L2Cache_Controller.SS.L2_Replacement           38      0.00%      0.00%
system.ruby.L2Cache_Controller.SS.L2_Replacement_clean           15      0.00%      0.00%
system.ruby.L2Cache_Controller.M.L1_GETS      2810457      0.00%      0.00%
system.ruby.L2Cache_Controller.M.L1_GETX       928943      0.00%      0.00%
system.ruby.L2Cache_Controller.M.L2_Replacement      1538113      0.00%      0.00%
system.ruby.L2Cache_Controller.M.L2_Replacement_clean       456426      0.00%      0.00%
system.ruby.L2Cache_Controller.MT.L1_GETS       676428      0.00%      0.00%
system.ruby.L2Cache_Controller.MT.L1_GETX       268743      0.00%      0.00%
system.ruby.L2Cache_Controller.MT.L1_PUTX      6343017      0.00%      0.00%
system.ruby.L2Cache_Controller.MT.L2_Replacement        21874      0.00%      0.00%
system.ruby.L2Cache_Controller.MT.L2_Replacement_clean       402531      0.00%      0.00%
system.ruby.L2Cache_Controller.M_I.L1_GETS           27      0.00%      0.00%
system.ruby.L2Cache_Controller.M_I.L1_GETX           10      0.00%      0.00%
system.ruby.L2Cache_Controller.M_I.Mem_Ack      2418997      0.00%      0.00%
system.ruby.L2Cache_Controller.MT_I.WB_Data        20672      0.00%      0.00%
system.ruby.L2Cache_Controller.MT_I.WB_Data_clean          635      0.00%      0.00%
system.ruby.L2Cache_Controller.MT_I.Ack_all          567      0.00%      0.00%
system.ruby.L2Cache_Controller.MCT_I.L1_PUTX_old            3      0.00%      0.00%
system.ruby.L2Cache_Controller.MCT_I.WB_Data       264183      0.00%      0.00%
system.ruby.L2Cache_Controller.MCT_I.WB_Data_clean       135803      0.00%      0.00%
system.ruby.L2Cache_Controller.MCT_I.Ack_all         2545      0.00%      0.00%
system.ruby.L2Cache_Controller.I_I.L1_GETS            1      0.00%      0.00%
system.ruby.L2Cache_Controller.I_I.Ack            106      0.00%      0.00%
system.ruby.L2Cache_Controller.I_I.Ack_all           15      0.00%      0.00%
system.ruby.L2Cache_Controller.S_I.L1_GETS            2      0.00%      0.00%
system.ruby.L2Cache_Controller.S_I.Ack            192      0.00%      0.00%
system.ruby.L2Cache_Controller.S_I.Ack_all           38      0.00%      0.00%
system.ruby.L2Cache_Controller.ISS.L1_GETS        28370      0.00%      0.00%
system.ruby.L2Cache_Controller.ISS.Mem_Data      1686569      0.00%      0.00%
system.ruby.L2Cache_Controller.IS.L1_GETS         7641      0.00%      0.00%
system.ruby.L2Cache_Controller.IS.Mem_Data        28370      0.00%      0.00%
system.ruby.L2Cache_Controller.IM.L1_GETX            2      0.00%      0.00%
system.ruby.L2Cache_Controller.IM.Mem_Data      1359418      0.00%      0.00%
system.ruby.L2Cache_Controller.SS_MB.L1_GETS        18673      0.00%      0.00%
system.ruby.L2Cache_Controller.SS_MB.L1_GETX        79250      0.00%      0.00%
system.ruby.L2Cache_Controller.SS_MB.L1_UPGRADE       200926      0.00%      0.00%
system.ruby.L2Cache_Controller.SS_MB.Exclusive_Unblock       704711      0.00%      0.00%
system.ruby.L2Cache_Controller.MT_MB.L1_GETS       174664      0.00%      0.00%
system.ruby.L2Cache_Controller.MT_MB.L1_GETX       115777      0.00%      0.00%
system.ruby.L2Cache_Controller.MT_MB.Exclusive_Unblock      7054130      0.00%      0.00%
system.ruby.L2Cache_Controller.MT_IIB.L1_GETS        83760      0.00%      0.00%
system.ruby.L2Cache_Controller.MT_IIB.L1_GETX        13846      0.00%      0.00%
system.ruby.L2Cache_Controller.MT_IIB.L1_UPGRADE           43      0.00%      0.00%
system.ruby.L2Cache_Controller.MT_IIB.L1_PUTX           13      0.00%      0.00%
system.ruby.L2Cache_Controller.MT_IIB.WB_Data       634163      0.00%      0.00%
system.ruby.L2Cache_Controller.MT_IIB.WB_Data_clean            5      0.00%      0.00%
system.ruby.L2Cache_Controller.MT_IIB.Unblock        42260      0.00%      0.00%
system.ruby.L2Cache_Controller.MT_IB.L1_GETS            1      0.00%      0.00%
system.ruby.L2Cache_Controller.MT_IB.L1_UPGRADE            1      0.00%      0.00%
system.ruby.L2Cache_Controller.MT_IB.WB_Data        42260      0.00%      0.00%
system.ruby.L2Cache_Controller.MT_SB.L1_GETS           27      0.00%      0.00%
system.ruby.L2Cache_Controller.MT_SB.Unblock       634168      0.00%      0.00%

---------- End Simulation Statistics   ----------
