
---------- Begin Simulation Statistics ----------
sim_seconds                                  5.690962                       # Number of seconds simulated
sim_ticks                                5690962481000                       # Number of ticks simulated
final_tick                               5690962481000                       # Number of ticks from beginning of simulation (restored from checkpoints and never reset)
sim_freq                                 1000000000000                       # Frequency of simulated ticks
host_inst_rate                                 137526                       # Simulator instruction rate (inst/s)
host_op_rate                                   384884                       # Simulator op (including micro ops) rate (op/s)
host_tick_rate                              230493675                       # Simulator tick rate (ticks/s)
host_mem_usage                                4136528                       # Number of bytes of host memory used
host_seconds                                 24690.32                       # Real time elapsed on the host
sim_insts                                  3395555942                       # Number of instructions simulated
sim_ops                                    9502911054                       # Number of ops (including micro ops) simulated
system.voltage_domain.voltage                       1                       # Voltage in Volts
system.clk_domain.clock                          1000                       # Clock period in ticks
system.mem_ctrls.bytes_read::ruby.dir_cntrl0    384554304                       # Number of bytes read from this memory
system.mem_ctrls.bytes_read::total          384554304                       # Number of bytes read from this memory
system.mem_ctrls.bytes_written::ruby.dir_cntrl0    278528320                       # Number of bytes written to this memory
system.mem_ctrls.bytes_written::total       278528320                       # Number of bytes written to this memory
system.mem_ctrls.num_reads::ruby.dir_cntrl0      6008661                       # Number of read requests responded to by this memory
system.mem_ctrls.num_reads::total             6008661                       # Number of read requests responded to by this memory
system.mem_ctrls.num_writes::ruby.dir_cntrl0      4352005                       # Number of write requests responded to by this memory
system.mem_ctrls.num_writes::total            4352005                       # Number of write requests responded to by this memory
system.mem_ctrls.bw_read::ruby.dir_cntrl0     67572806                       # Total read bandwidth from this memory (bytes/s)
system.mem_ctrls.bw_read::total              67572806                       # Total read bandwidth from this memory (bytes/s)
system.mem_ctrls.bw_write::ruby.dir_cntrl0     48942217                       # Write bandwidth from this memory (bytes/s)
system.mem_ctrls.bw_write::total             48942217                       # Write bandwidth from this memory (bytes/s)
system.mem_ctrls.bw_total::ruby.dir_cntrl0    116515023                       # Total bandwidth to/from this memory (bytes/s)
system.mem_ctrls.bw_total::total            116515023                       # Total bandwidth to/from this memory (bytes/s)
system.mem_ctrls.memReq                      10360666                       # Total number of memory requests
system.mem_ctrls.memRead                      6008661                       # Number of memory reads
system.mem_ctrls.memWrite                     4352005                       # Number of memory writes
system.mem_ctrls.memRefresh                  71534471                       # Number of memory refreshes
system.mem_ctrls.memWaitCycles               40449146                       # Delay stalled at the head of the bank queue
system.mem_ctrls.memInputQ                      11679                       # Delay in the input queue
system.mem_ctrls.memBankQ                      218424                       # Delay behind the head of the bank queue
system.mem_ctrls.totalStalls                 40679249                       # Total number of stall cycles
system.mem_ctrls.stallsPerReq                3.926316                       # Expected number of stall cycles per request
system.mem_ctrls.memBankBusy                 40033429                       # memory stalls due to busy bank
system.mem_ctrls.memBusBusy                    257284                       # memory stalls due to busy bus
system.mem_ctrls.memReadWriteBusy               10999                       # memory stalls due to read write turnaround
system.mem_ctrls.memDataBusBusy                 83500                       # memory stalls due to read read turnaround
system.mem_ctrls.memArbWait                     63934                       # memory stalls due to arbitration
system.mem_ctrls.memBankCount            |      323317      3.12%      3.12% |      322959      3.12%      6.24% |      323360      3.12%      9.36% |      324108      3.13%     12.49% |      324211      3.13%     15.62% |      323763      3.12%     18.74% |      323749      3.12%     21.87% |      323576      3.12%     24.99% |      324142      3.13%     28.12% |      323837      3.13%     31.24% |      323773      3.13%     34.37% |      324037      3.13%     37.50% |      323990      3.13%     40.62% |      323744      3.12%     43.75% |      324155      3.13%     46.88% |      323875      3.13%     50.00% |      324285      3.13%     53.13% |      324312      3.13%     56.26% |      324221      3.13%     59.39% |      323996      3.13%     62.52% |      323481      3.12%     65.64% |      323870      3.13%     68.77% |      324206      3.13%     71.90% |      323971      3.13%     75.02% |      323852      3.13%     78.15% |      323493      3.12%     81.27% |      323210      3.12%     84.39% |      322826      3.12%     87.51% |      323389      3.12%     90.63% |      323742      3.12%     93.75% |      323781      3.13%     96.88% |      323435      3.12%    100.00% # Number of accesses per bank
system.mem_ctrls.memBankCount::total         10360666                       # Number of accesses per bank
system.cpu_voltage_domain.voltage                   1                       # Voltage in Volts
system.cpu_clk_domain.clock                       500                       # Clock period in ticks
system.cpu0.apic_clk_domain.clock                8000                       # Clock period in ticks
system.cpu0.workload.num_syscalls                 180                       # Number of system calls
system.cpu0.numCycles                     11381924962                       # number of cpu cycles simulated
system.cpu0.numWorkItemsStarted                     0                       # number of work items this cpu started
system.cpu0.numWorkItemsCompleted                   0                       # number of work items this cpu completed
system.cpu0.committedInsts                 3163247014                       # Number of instructions committed
system.cpu0.committedOps                   9038318274                       # Number of ops (including micro ops) committed
system.cpu0.num_int_alu_accesses           8526025002                       # Number of integer alu accesses
system.cpu0.num_fp_alu_accesses             216644550                       # Number of float alu accesses
system.cpu0.num_func_calls                  304262268                       # number of times a function call or return occured
system.cpu0.num_conditional_control_insts    698641617                       # number of instructions that are conditional controls
system.cpu0.num_int_insts                  8526025002                       # number of integer instructions
system.cpu0.num_fp_insts                    216644550                       # number of float instructions
system.cpu0.num_int_register_reads        17962300204                       # number of times the integer registers were read
system.cpu0.num_int_register_writes        8493891265                       # number of times the integer registers were written
system.cpu0.num_fp_register_reads           348151590                       # number of times the floating registers were read
system.cpu0.num_fp_register_writes          170275978                       # number of times the floating registers were written
system.cpu0.num_cc_register_reads          7221147390                       # number of times the CC registers were read
system.cpu0.num_cc_register_writes         2706551885                       # number of times the CC registers were written
system.cpu0.num_mem_refs                   1377975937                       # number of memory refs
system.cpu0.num_load_insts                  837079790                       # Number of load instructions
system.cpu0.num_store_insts                 540896147                       # Number of store instructions
system.cpu0.num_idle_cycles                  0.002000                       # Number of idle cycles
system.cpu0.num_busy_cycles              11381924961.997999                       # Number of busy cycles
system.cpu0.not_idle_fraction                1.000000                       # Percentage of non-idle cycles
system.cpu0.idle_fraction                    0.000000                       # Percentage of idle cycles
system.cpu0.Branches                       1148879125                       # Number of branches fetched
system.cpu0.op_class::No_OpClass            177947950      1.97%      1.97% # Class of executed instruction
system.cpu0.op_class::IntAlu               6552165258     72.49%     74.46% # Class of executed instruction
system.cpu0.op_class::IntMult                     389      0.00%     74.46% # Class of executed instruction
system.cpu0.op_class::IntDiv                759953519      8.41%     82.87% # Class of executed instruction
system.cpu0.op_class::FloatAdd              170275221      1.88%     84.75% # Class of executed instruction
system.cpu0.op_class::FloatCmp                      0      0.00%     84.75% # Class of executed instruction
system.cpu0.op_class::FloatCvt                      0      0.00%     84.75% # Class of executed instruction
system.cpu0.op_class::FloatMult                     0      0.00%     84.75% # Class of executed instruction
system.cpu0.op_class::FloatDiv                      0      0.00%     84.75% # Class of executed instruction
system.cpu0.op_class::FloatSqrt                     0      0.00%     84.75% # Class of executed instruction
system.cpu0.op_class::SimdAdd                       0      0.00%     84.75% # Class of executed instruction
system.cpu0.op_class::SimdAddAcc                    0      0.00%     84.75% # Class of executed instruction
system.cpu0.op_class::SimdAlu                       0      0.00%     84.75% # Class of executed instruction
system.cpu0.op_class::SimdCmp                       0      0.00%     84.75% # Class of executed instruction
system.cpu0.op_class::SimdCvt                       0      0.00%     84.75% # Class of executed instruction
system.cpu0.op_class::SimdMisc                      0      0.00%     84.75% # Class of executed instruction
system.cpu0.op_class::SimdMult                      0      0.00%     84.75% # Class of executed instruction
system.cpu0.op_class::SimdMultAcc                   0      0.00%     84.75% # Class of executed instruction
system.cpu0.op_class::SimdShift                     0      0.00%     84.75% # Class of executed instruction
system.cpu0.op_class::SimdShiftAcc                  0      0.00%     84.75% # Class of executed instruction
system.cpu0.op_class::SimdSqrt                      0      0.00%     84.75% # Class of executed instruction
system.cpu0.op_class::SimdFloatAdd                  0      0.00%     84.75% # Class of executed instruction
system.cpu0.op_class::SimdFloatAlu                  0      0.00%     84.75% # Class of executed instruction
system.cpu0.op_class::SimdFloatCmp                  0      0.00%     84.75% # Class of executed instruction
system.cpu0.op_class::SimdFloatCvt                  0      0.00%     84.75% # Class of executed instruction
system.cpu0.op_class::SimdFloatDiv                  0      0.00%     84.75% # Class of executed instruction
system.cpu0.op_class::SimdFloatMisc                 0      0.00%     84.75% # Class of executed instruction
system.cpu0.op_class::SimdFloatMult                 0      0.00%     84.75% # Class of executed instruction
system.cpu0.op_class::SimdFloatMultAcc              0      0.00%     84.75% # Class of executed instruction
system.cpu0.op_class::SimdFloatSqrt                 0      0.00%     84.75% # Class of executed instruction
system.cpu0.op_class::MemRead               837079790      9.26%     94.02% # Class of executed instruction
system.cpu0.op_class::MemWrite              540896147      5.98%    100.00% # Class of executed instruction
system.cpu0.op_class::IprAccess                     0      0.00%    100.00% # Class of executed instruction
system.cpu0.op_class::InstPrefetch                  0      0.00%    100.00% # Class of executed instruction
system.cpu0.op_class::total                9038318274                       # Class of executed instruction
system.cpu1.apic_clk_domain.clock                8000                       # Clock period in ticks
system.cpu1.numCycles                     11381670581                       # number of cpu cycles simulated
system.cpu1.numWorkItemsStarted                     0                       # number of work items this cpu started
system.cpu1.numWorkItemsCompleted                   0                       # number of work items this cpu completed
system.cpu1.committedInsts                   58077232                       # Number of instructions committed
system.cpu1.committedOps                    116148195                       # Number of ops (including micro ops) committed
system.cpu1.num_int_alu_accesses             87175319                       # Number of integer alu accesses
system.cpu1.num_fp_alu_accesses              56894279                       # Number of float alu accesses
system.cpu1.num_func_calls                     161815                       # number of times a function call or return occured
system.cpu1.num_conditional_control_insts      7134452                       # number of instructions that are conditional controls
system.cpu1.num_int_insts                    87175319                       # number of integer instructions
system.cpu1.num_fp_insts                     56894279                       # number of float instructions
system.cpu1.num_int_register_reads          153196448                       # number of times the integer registers were read
system.cpu1.num_int_register_writes          52032168                       # number of times the integer registers were written
system.cpu1.num_fp_register_reads            86190677                       # number of times the floating registers were read
system.cpu1.num_fp_register_writes           56813392                       # number of times the floating registers were written
system.cpu1.num_cc_register_reads            42887640                       # number of times the CC registers were read
system.cpu1.num_cc_register_writes           42862530                       # number of times the CC registers were written
system.cpu1.num_mem_refs                     28338623                       # number of memory refs
system.cpu1.num_load_insts                   28176742                       # Number of load instructions
system.cpu1.num_store_insts                    161881                       # Number of store instructions
system.cpu1.num_idle_cycles              11111357243.518875                       # Number of idle cycles
system.cpu1.num_busy_cycles              270313337.481125                       # Number of busy cycles
system.cpu1.not_idle_fraction                0.023750                       # Percentage of non-idle cycles
system.cpu1.idle_fraction                    0.976250                       # Percentage of idle cycles
system.cpu1.Branches                          7383422                       # Number of branches fetched
system.cpu1.op_class::No_OpClass                    2      0.00%      0.00% # Class of executed instruction
system.cpu1.op_class::IntAlu                 58594024     50.45%     50.45% # Class of executed instruction
system.cpu1.op_class::IntMult                  242657      0.21%     50.66% # Class of executed instruction
system.cpu1.op_class::IntDiv                       14      0.00%     50.66% # Class of executed instruction
system.cpu1.op_class::FloatAdd               28972875     24.94%     75.60% # Class of executed instruction
system.cpu1.op_class::FloatCmp                      0      0.00%     75.60% # Class of executed instruction
system.cpu1.op_class::FloatCvt                      0      0.00%     75.60% # Class of executed instruction
system.cpu1.op_class::FloatMult                     0      0.00%     75.60% # Class of executed instruction
system.cpu1.op_class::FloatDiv                      0      0.00%     75.60% # Class of executed instruction
system.cpu1.op_class::FloatSqrt                     0      0.00%     75.60% # Class of executed instruction
system.cpu1.op_class::SimdAdd                       0      0.00%     75.60% # Class of executed instruction
system.cpu1.op_class::SimdAddAcc                    0      0.00%     75.60% # Class of executed instruction
system.cpu1.op_class::SimdAlu                       0      0.00%     75.60% # Class of executed instruction
system.cpu1.op_class::SimdCmp                       0      0.00%     75.60% # Class of executed instruction
system.cpu1.op_class::SimdCvt                       0      0.00%     75.60% # Class of executed instruction
system.cpu1.op_class::SimdMisc                      0      0.00%     75.60% # Class of executed instruction
system.cpu1.op_class::SimdMult                      0      0.00%     75.60% # Class of executed instruction
system.cpu1.op_class::SimdMultAcc                   0      0.00%     75.60% # Class of executed instruction
system.cpu1.op_class::SimdShift                     0      0.00%     75.60% # Class of executed instruction
system.cpu1.op_class::SimdShiftAcc                  0      0.00%     75.60% # Class of executed instruction
system.cpu1.op_class::SimdSqrt                      0      0.00%     75.60% # Class of executed instruction
system.cpu1.op_class::SimdFloatAdd                  0      0.00%     75.60% # Class of executed instruction
system.cpu1.op_class::SimdFloatAlu                  0      0.00%     75.60% # Class of executed instruction
system.cpu1.op_class::SimdFloatCmp                  0      0.00%     75.60% # Class of executed instruction
system.cpu1.op_class::SimdFloatCvt                  0      0.00%     75.60% # Class of executed instruction
system.cpu1.op_class::SimdFloatDiv                  0      0.00%     75.60% # Class of executed instruction
system.cpu1.op_class::SimdFloatMisc                 0      0.00%     75.60% # Class of executed instruction
system.cpu1.op_class::SimdFloatMult                 0      0.00%     75.60% # Class of executed instruction
system.cpu1.op_class::SimdFloatMultAcc              0      0.00%     75.60% # Class of executed instruction
system.cpu1.op_class::SimdFloatSqrt                 0      0.00%     75.60% # Class of executed instruction
system.cpu1.op_class::MemRead                28176742     24.26%     99.86% # Class of executed instruction
system.cpu1.op_class::MemWrite                 161881      0.14%    100.00% # Class of executed instruction
system.cpu1.op_class::IprAccess                     0      0.00%    100.00% # Class of executed instruction
system.cpu1.op_class::InstPrefetch                  0      0.00%    100.00% # Class of executed instruction
system.cpu1.op_class::total                 116148195                       # Class of executed instruction
system.cpu2.apic_clk_domain.clock                8000                       # Clock period in ticks
system.cpu2.numCycles                     11379897115                       # number of cpu cycles simulated
system.cpu2.numWorkItemsStarted                     0                       # number of work items this cpu started
system.cpu2.numWorkItemsCompleted                   0                       # number of work items this cpu completed
system.cpu2.committedInsts                   58077232                       # Number of instructions committed
system.cpu2.committedOps                    116148195                       # Number of ops (including micro ops) committed
system.cpu2.num_int_alu_accesses             87175319                       # Number of integer alu accesses
system.cpu2.num_fp_alu_accesses              56894279                       # Number of float alu accesses
system.cpu2.num_func_calls                     161815                       # number of times a function call or return occured
system.cpu2.num_conditional_control_insts      7134452                       # number of instructions that are conditional controls
system.cpu2.num_int_insts                    87175319                       # number of integer instructions
system.cpu2.num_fp_insts                     56894279                       # number of float instructions
system.cpu2.num_int_register_reads          153196448                       # number of times the integer registers were read
system.cpu2.num_int_register_writes          52032168                       # number of times the integer registers were written
system.cpu2.num_fp_register_reads            86190677                       # number of times the floating registers were read
system.cpu2.num_fp_register_writes           56813392                       # number of times the floating registers were written
system.cpu2.num_cc_register_reads            42887640                       # number of times the CC registers were read
system.cpu2.num_cc_register_writes           42862530                       # number of times the CC registers were written
system.cpu2.num_mem_refs                     28338623                       # number of memory refs
system.cpu2.num_load_insts                   28176742                       # Number of load instructions
system.cpu2.num_store_insts                    161881                       # Number of store instructions
system.cpu2.num_idle_cycles              11111399567.067677                       # Number of idle cycles
system.cpu2.num_busy_cycles              268497547.932324                       # Number of busy cycles
system.cpu2.not_idle_fraction                0.023594                       # Percentage of non-idle cycles
system.cpu2.idle_fraction                    0.976406                       # Percentage of idle cycles
system.cpu2.Branches                          7383422                       # Number of branches fetched
system.cpu2.op_class::No_OpClass                    2      0.00%      0.00% # Class of executed instruction
system.cpu2.op_class::IntAlu                 58594024     50.45%     50.45% # Class of executed instruction
system.cpu2.op_class::IntMult                  242657      0.21%     50.66% # Class of executed instruction
system.cpu2.op_class::IntDiv                       14      0.00%     50.66% # Class of executed instruction
system.cpu2.op_class::FloatAdd               28972875     24.94%     75.60% # Class of executed instruction
system.cpu2.op_class::FloatCmp                      0      0.00%     75.60% # Class of executed instruction
system.cpu2.op_class::FloatCvt                      0      0.00%     75.60% # Class of executed instruction
system.cpu2.op_class::FloatMult                     0      0.00%     75.60% # Class of executed instruction
system.cpu2.op_class::FloatDiv                      0      0.00%     75.60% # Class of executed instruction
system.cpu2.op_class::FloatSqrt                     0      0.00%     75.60% # Class of executed instruction
system.cpu2.op_class::SimdAdd                       0      0.00%     75.60% # Class of executed instruction
system.cpu2.op_class::SimdAddAcc                    0      0.00%     75.60% # Class of executed instruction
system.cpu2.op_class::SimdAlu                       0      0.00%     75.60% # Class of executed instruction
system.cpu2.op_class::SimdCmp                       0      0.00%     75.60% # Class of executed instruction
system.cpu2.op_class::SimdCvt                       0      0.00%     75.60% # Class of executed instruction
system.cpu2.op_class::SimdMisc                      0      0.00%     75.60% # Class of executed instruction
system.cpu2.op_class::SimdMult                      0      0.00%     75.60% # Class of executed instruction
system.cpu2.op_class::SimdMultAcc                   0      0.00%     75.60% # Class of executed instruction
system.cpu2.op_class::SimdShift                     0      0.00%     75.60% # Class of executed instruction
system.cpu2.op_class::SimdShiftAcc                  0      0.00%     75.60% # Class of executed instruction
system.cpu2.op_class::SimdSqrt                      0      0.00%     75.60% # Class of executed instruction
system.cpu2.op_class::SimdFloatAdd                  0      0.00%     75.60% # Class of executed instruction
system.cpu2.op_class::SimdFloatAlu                  0      0.00%     75.60% # Class of executed instruction
system.cpu2.op_class::SimdFloatCmp                  0      0.00%     75.60% # Class of executed instruction
system.cpu2.op_class::SimdFloatCvt                  0      0.00%     75.60% # Class of executed instruction
system.cpu2.op_class::SimdFloatDiv                  0      0.00%     75.60% # Class of executed instruction
system.cpu2.op_class::SimdFloatMisc                 0      0.00%     75.60% # Class of executed instruction
system.cpu2.op_class::SimdFloatMult                 0      0.00%     75.60% # Class of executed instruction
system.cpu2.op_class::SimdFloatMultAcc              0      0.00%     75.60% # Class of executed instruction
system.cpu2.op_class::SimdFloatSqrt                 0      0.00%     75.60% # Class of executed instruction
system.cpu2.op_class::MemRead                28176742     24.26%     99.86% # Class of executed instruction
system.cpu2.op_class::MemWrite                 161881      0.14%    100.00% # Class of executed instruction
system.cpu2.op_class::IprAccess                     0      0.00%    100.00% # Class of executed instruction
system.cpu2.op_class::InstPrefetch                  0      0.00%    100.00% # Class of executed instruction
system.cpu2.op_class::total                 116148195                       # Class of executed instruction
system.cpu3.apic_clk_domain.clock                8000                       # Clock period in ticks
system.cpu3.numCycles                     11379897110                       # number of cpu cycles simulated
system.cpu3.numWorkItemsStarted                     0                       # number of work items this cpu started
system.cpu3.numWorkItemsCompleted                   0                       # number of work items this cpu completed
system.cpu3.committedInsts                   58077232                       # Number of instructions committed
system.cpu3.committedOps                    116148195                       # Number of ops (including micro ops) committed
system.cpu3.num_int_alu_accesses             87175319                       # Number of integer alu accesses
system.cpu3.num_fp_alu_accesses              56894279                       # Number of float alu accesses
system.cpu3.num_func_calls                     161815                       # number of times a function call or return occured
system.cpu3.num_conditional_control_insts      7134452                       # number of instructions that are conditional controls
system.cpu3.num_int_insts                    87175319                       # number of integer instructions
system.cpu3.num_fp_insts                     56894279                       # number of float instructions
system.cpu3.num_int_register_reads          153196448                       # number of times the integer registers were read
system.cpu3.num_int_register_writes          52032168                       # number of times the integer registers were written
system.cpu3.num_fp_register_reads            86190677                       # number of times the floating registers were read
system.cpu3.num_fp_register_writes           56813392                       # number of times the floating registers were written
system.cpu3.num_cc_register_reads            42887640                       # number of times the CC registers were read
system.cpu3.num_cc_register_writes           42862530                       # number of times the CC registers were written
system.cpu3.num_mem_refs                     28338623                       # number of memory refs
system.cpu3.num_load_insts                   28176742                       # Number of load instructions
system.cpu3.num_store_insts                    161881                       # Number of store instructions
system.cpu3.num_idle_cycles              11111399981.110994                       # Number of idle cycles
system.cpu3.num_busy_cycles              268497128.889004                       # Number of busy cycles
system.cpu3.not_idle_fraction                0.023594                       # Percentage of non-idle cycles
system.cpu3.idle_fraction                    0.976406                       # Percentage of idle cycles
system.cpu3.Branches                          7383422                       # Number of branches fetched
system.cpu3.op_class::No_OpClass                    2      0.00%      0.00% # Class of executed instruction
system.cpu3.op_class::IntAlu                 58594024     50.45%     50.45% # Class of executed instruction
system.cpu3.op_class::IntMult                  242657      0.21%     50.66% # Class of executed instruction
system.cpu3.op_class::IntDiv                       14      0.00%     50.66% # Class of executed instruction
system.cpu3.op_class::FloatAdd               28972875     24.94%     75.60% # Class of executed instruction
system.cpu3.op_class::FloatCmp                      0      0.00%     75.60% # Class of executed instruction
system.cpu3.op_class::FloatCvt                      0      0.00%     75.60% # Class of executed instruction
system.cpu3.op_class::FloatMult                     0      0.00%     75.60% # Class of executed instruction
system.cpu3.op_class::FloatDiv                      0      0.00%     75.60% # Class of executed instruction
system.cpu3.op_class::FloatSqrt                     0      0.00%     75.60% # Class of executed instruction
system.cpu3.op_class::SimdAdd                       0      0.00%     75.60% # Class of executed instruction
system.cpu3.op_class::SimdAddAcc                    0      0.00%     75.60% # Class of executed instruction
system.cpu3.op_class::SimdAlu                       0      0.00%     75.60% # Class of executed instruction
system.cpu3.op_class::SimdCmp                       0      0.00%     75.60% # Class of executed instruction
system.cpu3.op_class::SimdCvt                       0      0.00%     75.60% # Class of executed instruction
system.cpu3.op_class::SimdMisc                      0      0.00%     75.60% # Class of executed instruction
system.cpu3.op_class::SimdMult                      0      0.00%     75.60% # Class of executed instruction
system.cpu3.op_class::SimdMultAcc                   0      0.00%     75.60% # Class of executed instruction
system.cpu3.op_class::SimdShift                     0      0.00%     75.60% # Class of executed instruction
system.cpu3.op_class::SimdShiftAcc                  0      0.00%     75.60% # Class of executed instruction
system.cpu3.op_class::SimdSqrt                      0      0.00%     75.60% # Class of executed instruction
system.cpu3.op_class::SimdFloatAdd                  0      0.00%     75.60% # Class of executed instruction
system.cpu3.op_class::SimdFloatAlu                  0      0.00%     75.60% # Class of executed instruction
system.cpu3.op_class::SimdFloatCmp                  0      0.00%     75.60% # Class of executed instruction
system.cpu3.op_class::SimdFloatCvt                  0      0.00%     75.60% # Class of executed instruction
system.cpu3.op_class::SimdFloatDiv                  0      0.00%     75.60% # Class of executed instruction
system.cpu3.op_class::SimdFloatMisc                 0      0.00%     75.60% # Class of executed instruction
system.cpu3.op_class::SimdFloatMult                 0      0.00%     75.60% # Class of executed instruction
system.cpu3.op_class::SimdFloatMultAcc              0      0.00%     75.60% # Class of executed instruction
system.cpu3.op_class::SimdFloatSqrt                 0      0.00%     75.60% # Class of executed instruction
system.cpu3.op_class::MemRead                28176742     24.26%     99.86% # Class of executed instruction
system.cpu3.op_class::MemWrite                 161881      0.14%    100.00% # Class of executed instruction
system.cpu3.op_class::IprAccess                     0      0.00%    100.00% # Class of executed instruction
system.cpu3.op_class::InstPrefetch                  0      0.00%    100.00% # Class of executed instruction
system.cpu3.op_class::total                 116148195                       # Class of executed instruction
system.cpu4.apic_clk_domain.clock                8000                       # Clock period in ticks
system.cpu4.numCycles                     11379897110                       # number of cpu cycles simulated
system.cpu4.numWorkItemsStarted                     0                       # number of work items this cpu started
system.cpu4.numWorkItemsCompleted                   0                       # number of work items this cpu completed
system.cpu4.committedInsts                   58077232                       # Number of instructions committed
system.cpu4.committedOps                    116148195                       # Number of ops (including micro ops) committed
system.cpu4.num_int_alu_accesses             87175319                       # Number of integer alu accesses
system.cpu4.num_fp_alu_accesses              56894279                       # Number of float alu accesses
system.cpu4.num_func_calls                     161815                       # number of times a function call or return occured
system.cpu4.num_conditional_control_insts      7134452                       # number of instructions that are conditional controls
system.cpu4.num_int_insts                    87175319                       # number of integer instructions
system.cpu4.num_fp_insts                     56894279                       # number of float instructions
system.cpu4.num_int_register_reads          153196448                       # number of times the integer registers were read
system.cpu4.num_int_register_writes          52032168                       # number of times the integer registers were written
system.cpu4.num_fp_register_reads            86190677                       # number of times the floating registers were read
system.cpu4.num_fp_register_writes           56813392                       # number of times the floating registers were written
system.cpu4.num_cc_register_reads            42887640                       # number of times the CC registers were read
system.cpu4.num_cc_register_writes           42862530                       # number of times the CC registers were written
system.cpu4.num_mem_refs                     28338623                       # number of memory refs
system.cpu4.num_load_insts                   28176742                       # Number of load instructions
system.cpu4.num_store_insts                    161881                       # Number of store instructions
system.cpu4.num_idle_cycles              11111400412.034206                       # Number of idle cycles
system.cpu4.num_busy_cycles              268496697.965793                       # Number of busy cycles
system.cpu4.not_idle_fraction                0.023594                       # Percentage of non-idle cycles
system.cpu4.idle_fraction                    0.976406                       # Percentage of idle cycles
system.cpu4.Branches                          7383422                       # Number of branches fetched
system.cpu4.op_class::No_OpClass                    2      0.00%      0.00% # Class of executed instruction
system.cpu4.op_class::IntAlu                 58594024     50.45%     50.45% # Class of executed instruction
system.cpu4.op_class::IntMult                  242657      0.21%     50.66% # Class of executed instruction
system.cpu4.op_class::IntDiv                       14      0.00%     50.66% # Class of executed instruction
system.cpu4.op_class::FloatAdd               28972875     24.94%     75.60% # Class of executed instruction
system.cpu4.op_class::FloatCmp                      0      0.00%     75.60% # Class of executed instruction
system.cpu4.op_class::FloatCvt                      0      0.00%     75.60% # Class of executed instruction
system.cpu4.op_class::FloatMult                     0      0.00%     75.60% # Class of executed instruction
system.cpu4.op_class::FloatDiv                      0      0.00%     75.60% # Class of executed instruction
system.cpu4.op_class::FloatSqrt                     0      0.00%     75.60% # Class of executed instruction
system.cpu4.op_class::SimdAdd                       0      0.00%     75.60% # Class of executed instruction
system.cpu4.op_class::SimdAddAcc                    0      0.00%     75.60% # Class of executed instruction
system.cpu4.op_class::SimdAlu                       0      0.00%     75.60% # Class of executed instruction
system.cpu4.op_class::SimdCmp                       0      0.00%     75.60% # Class of executed instruction
system.cpu4.op_class::SimdCvt                       0      0.00%     75.60% # Class of executed instruction
system.cpu4.op_class::SimdMisc                      0      0.00%     75.60% # Class of executed instruction
system.cpu4.op_class::SimdMult                      0      0.00%     75.60% # Class of executed instruction
system.cpu4.op_class::SimdMultAcc                   0      0.00%     75.60% # Class of executed instruction
system.cpu4.op_class::SimdShift                     0      0.00%     75.60% # Class of executed instruction
system.cpu4.op_class::SimdShiftAcc                  0      0.00%     75.60% # Class of executed instruction
system.cpu4.op_class::SimdSqrt                      0      0.00%     75.60% # Class of executed instruction
system.cpu4.op_class::SimdFloatAdd                  0      0.00%     75.60% # Class of executed instruction
system.cpu4.op_class::SimdFloatAlu                  0      0.00%     75.60% # Class of executed instruction
system.cpu4.op_class::SimdFloatCmp                  0      0.00%     75.60% # Class of executed instruction
system.cpu4.op_class::SimdFloatCvt                  0      0.00%     75.60% # Class of executed instruction
system.cpu4.op_class::SimdFloatDiv                  0      0.00%     75.60% # Class of executed instruction
system.cpu4.op_class::SimdFloatMisc                 0      0.00%     75.60% # Class of executed instruction
system.cpu4.op_class::SimdFloatMult                 0      0.00%     75.60% # Class of executed instruction
system.cpu4.op_class::SimdFloatMultAcc              0      0.00%     75.60% # Class of executed instruction
system.cpu4.op_class::SimdFloatSqrt                 0      0.00%     75.60% # Class of executed instruction
system.cpu4.op_class::MemRead                28176742     24.26%     99.86% # Class of executed instruction
system.cpu4.op_class::MemWrite                 161881      0.14%    100.00% # Class of executed instruction
system.cpu4.op_class::IprAccess                     0      0.00%    100.00% # Class of executed instruction
system.cpu4.op_class::InstPrefetch                  0      0.00%    100.00% # Class of executed instruction
system.cpu4.op_class::total                 116148195                       # Class of executed instruction
system.ruby.clk_domain.clock                      500                       # Clock period in ticks
system.ruby.delayHist::bucket_size                 16                       # delay histogram for all message
system.ruby.delayHist::max_bucket                 159                       # delay histogram for all message
system.ruby.delayHist::samples               78174385                       # delay histogram for all message
system.ruby.delayHist::mean                  0.530064                       # delay histogram for all message
system.ruby.delayHist::stdev                 1.946877                       # delay histogram for all message
system.ruby.delayHist                    |    78167601     99.99%     99.99% |        6579      0.01%    100.00% |         107      0.00%    100.00% |          78      0.00%    100.00% |          19      0.00%    100.00% |           1      0.00%    100.00% |           0      0.00%    100.00% |           0      0.00%    100.00% |           0      0.00%    100.00% |           0      0.00%    100.00% # delay histogram for all message
system.ruby.delayHist::total                 78174385                       # delay histogram for all message
system.ruby.outstanding_req_hist::bucket_size            1                      
system.ruby.outstanding_req_hist::max_bucket            9                      
system.ruby.outstanding_req_hist::samples   5913144999                      
system.ruby.outstanding_req_hist::mean       1.000200                      
system.ruby.outstanding_req_hist::gmean      1.000138                      
system.ruby.outstanding_req_hist::stdev      0.014123                      
system.ruby.outstanding_req_hist         |           0      0.00%      0.00% |  5911965287     99.98%     99.98% |     1179712      0.02%    100.00% |           0      0.00%    100.00% |           0      0.00%    100.00% |           0      0.00%    100.00% |           0      0.00%    100.00% |           0      0.00%    100.00% |           0      0.00%    100.00% |           0      0.00%    100.00%
system.ruby.outstanding_req_hist::total    5913144999                      
system.ruby.latency_hist::bucket_size              32                      
system.ruby.latency_hist::max_bucket              319                      
system.ruby.latency_hist::samples          5913144999                      
system.ruby.latency_hist::mean               1.107110                      
system.ruby.latency_hist::gmean              1.007404                      
system.ruby.latency_hist::stdev              2.797841                      
system.ruby.latency_hist                 |  5906327269     99.88%     99.88% |      759912      0.01%     99.90% |     5989215      0.10%    100.00% |       68507      0.00%    100.00% |          74      0.00%    100.00% |           8      0.00%    100.00% |          14      0.00%    100.00% |           0      0.00%    100.00% |           0      0.00%    100.00% |           0      0.00%    100.00%
system.ruby.latency_hist::total            5913144999                      
system.ruby.hit_latency_hist::bucket_size           32                      
system.ruby.hit_latency_hist::max_bucket          319                      
system.ruby.hit_latency_hist::samples      5913144999                      
system.ruby.hit_latency_hist::mean           1.107110                      
system.ruby.hit_latency_hist::gmean          1.007404                      
system.ruby.hit_latency_hist::stdev          2.797841                      
system.ruby.hit_latency_hist             |  5906327269     99.88%     99.88% |      759912      0.01%     99.90% |     5989215      0.10%    100.00% |       68507      0.00%    100.00% |          74      0.00%    100.00% |           8      0.00%    100.00% |          14      0.00%    100.00% |           0      0.00%    100.00% |           0      0.00%    100.00% |           0      0.00%    100.00%
system.ruby.hit_latency_hist::total        5913144999                      
system.ruby.l0_cntrl0.Dcache.demand_hits   1373625067                       # Number of cache demand hits
system.ruby.l0_cntrl0.Dcache.demand_misses      4350934                       # Number of cache demand misses
system.ruby.l0_cntrl0.Dcache.demand_accesses   1377976001                       # Number of cache demand accesses
system.ruby.l0_cntrl0.Icache.demand_hits   4122600241                       # Number of cache demand hits
system.ruby.l0_cntrl0.Icache.demand_misses        11857                       # Number of cache demand misses
system.ruby.l0_cntrl0.Icache.demand_accesses   4122612098                       # Number of cache demand accesses
system.ruby.l0_cntrl0.Zcache.demand_hits            0                       # Number of cache demand hits
system.ruby.l0_cntrl0.Zcache.demand_misses            0                       # Number of cache demand misses
system.ruby.l0_cntrl0.Zcache.demand_accesses            0                       # Number of cache demand accesses
system.ruby.l0_cntrl1.Dcache.demand_hits     26831523                       # Number of cache demand hits
system.ruby.l0_cntrl1.Dcache.demand_misses      1802012                       # Number of cache demand misses
system.ruby.l0_cntrl1.Dcache.demand_accesses     28633535                       # Number of cache demand accesses
system.ruby.l0_cntrl1.Icache.demand_hits     74503526                       # Number of cache demand hits
system.ruby.l0_cntrl1.Icache.demand_misses         2164                       # Number of cache demand misses
system.ruby.l0_cntrl1.Icache.demand_accesses     74505690                       # Number of cache demand accesses
system.ruby.l0_cntrl1.Zcache.demand_hits            0                       # Number of cache demand hits
system.ruby.l0_cntrl1.Zcache.demand_misses            0                       # Number of cache demand misses
system.ruby.l0_cntrl1.Zcache.demand_accesses            0                       # Number of cache demand accesses
system.ruby.l0_cntrl2.Dcache.demand_hits     26826420                       # Number of cache demand hits
system.ruby.l0_cntrl2.Dcache.demand_misses      1807115                       # Number of cache demand misses
system.ruby.l0_cntrl2.Dcache.demand_accesses     28633535                       # Number of cache demand accesses
system.ruby.l0_cntrl2.Icache.demand_hits     74503556                       # Number of cache demand hits
system.ruby.l0_cntrl2.Icache.demand_misses         2134                       # Number of cache demand misses
system.ruby.l0_cntrl2.Icache.demand_accesses     74505690                       # Number of cache demand accesses
system.ruby.l0_cntrl2.Zcache.demand_hits            0                       # Number of cache demand hits
system.ruby.l0_cntrl2.Zcache.demand_misses            0                       # Number of cache demand misses
system.ruby.l0_cntrl2.Zcache.demand_accesses            0                       # Number of cache demand accesses
system.ruby.l0_cntrl3.Dcache.demand_hits     26829280                       # Number of cache demand hits
system.ruby.l0_cntrl3.Dcache.demand_misses      1804255                       # Number of cache demand misses
system.ruby.l0_cntrl3.Dcache.demand_accesses     28633535                       # Number of cache demand accesses
system.ruby.l0_cntrl3.Icache.demand_hits     74503610                       # Number of cache demand hits
system.ruby.l0_cntrl3.Icache.demand_misses         2080                       # Number of cache demand misses
system.ruby.l0_cntrl3.Icache.demand_accesses     74505690                       # Number of cache demand accesses
system.ruby.l0_cntrl3.Zcache.demand_hits            0                       # Number of cache demand hits
system.ruby.l0_cntrl3.Zcache.demand_misses            0                       # Number of cache demand misses
system.ruby.l0_cntrl3.Zcache.demand_accesses            0                       # Number of cache demand accesses
system.ruby.l0_cntrl4.Dcache.demand_hits     26831467                       # Number of cache demand hits
system.ruby.l0_cntrl4.Dcache.demand_misses      1802068                       # Number of cache demand misses
system.ruby.l0_cntrl4.Dcache.demand_accesses     28633535                       # Number of cache demand accesses
system.ruby.l0_cntrl4.Icache.demand_hits     74503599                       # Number of cache demand hits
system.ruby.l0_cntrl4.Icache.demand_misses         2091                       # Number of cache demand misses
system.ruby.l0_cntrl4.Icache.demand_accesses     74505690                       # Number of cache demand accesses
system.ruby.l0_cntrl4.Zcache.demand_hits            0                       # Number of cache demand hits
system.ruby.l0_cntrl4.Zcache.demand_misses            0                       # Number of cache demand misses
system.ruby.l0_cntrl4.Zcache.demand_accesses            0                       # Number of cache demand accesses
system.ruby.l1_cntrl0.cache.demand_hits           185                       # Number of cache demand hits
system.ruby.l1_cntrl0.cache.demand_misses      4362606                       # Number of cache demand misses
system.ruby.l1_cntrl0.cache.demand_accesses      4362791                       # Number of cache demand accesses
system.ruby.l1_cntrl1.cache.demand_hits        152245                       # Number of cache demand hits
system.ruby.l1_cntrl1.cache.demand_misses      1651931                       # Number of cache demand misses
system.ruby.l1_cntrl1.cache.demand_accesses      1804176                       # Number of cache demand accesses
system.ruby.l1_cntrl2.cache.demand_hits        146444                       # Number of cache demand hits
system.ruby.l1_cntrl2.cache.demand_misses      1662805                       # Number of cache demand misses
system.ruby.l1_cntrl2.cache.demand_accesses      1809249                       # Number of cache demand accesses
system.ruby.l1_cntrl3.cache.demand_hits        160390                       # Number of cache demand hits
system.ruby.l1_cntrl3.cache.demand_misses      1645945                       # Number of cache demand misses
system.ruby.l1_cntrl3.cache.demand_accesses      1806335                       # Number of cache demand accesses
system.ruby.l1_cntrl4.cache.demand_hits        145762                       # Number of cache demand hits
system.ruby.l1_cntrl4.cache.demand_misses      1658397                       # Number of cache demand misses
system.ruby.l1_cntrl4.cache.demand_accesses      1804159                       # Number of cache demand accesses
system.ruby.l2_cntrl0.L2cache.demand_hits      4160503                       # Number of cache demand hits
system.ruby.l2_cntrl0.L2cache.demand_misses      6821181                       # Number of cache demand misses
system.ruby.l2_cntrl0.L2cache.demand_accesses     10981684                       # Number of cache demand accesses
system.ruby.l2_cntrl0.fully_busy_cycles           786                       # cycles for which number of transistions == max transitions
system.ruby.memctrl_clk_domain.clock             1500                       # Clock period in ticks
system.ruby.network.routers00.percent_links_utilized            0                      
system.ruby.network.routers01.percent_links_utilized            0                      
system.ruby.network.routers02.percent_links_utilized            0                      
system.ruby.network.routers03.percent_links_utilized            0                      
system.ruby.network.routers04.percent_links_utilized            0                      
system.ruby.network.routers05.percent_links_utilized     0.201194                      
system.ruby.network.routers05.msg_count.Control::0      4362606                      
system.ruby.network.routers05.msg_count.Request_Control::2         4389                      
system.ruby.network.routers05.msg_count.Response_Data::1      4362603                      
system.ruby.network.routers05.msg_count.Response_Control::1      4357539                      
system.ruby.network.routers05.msg_count.Response_Control::2      4362597                      
system.ruby.network.routers05.msg_count.Writeback_Data::0      4356589                      
system.ruby.network.routers05.msg_count.Writeback_Data::1         4266                      
system.ruby.network.routers05.msg_count.Writeback_Control::0          756                      
system.ruby.network.routers05.msg_bytes.Control::0     34900848                      
system.ruby.network.routers05.msg_bytes.Request_Control::2        35112                      
system.ruby.network.routers05.msg_bytes.Response_Data::1    314107416                      
system.ruby.network.routers05.msg_bytes.Response_Control::1     34860312                      
system.ruby.network.routers05.msg_bytes.Response_Control::2     34900776                      
system.ruby.network.routers05.msg_bytes.Writeback_Data::0    313674408                      
system.ruby.network.routers05.msg_bytes.Writeback_Data::1       307152                      
system.ruby.network.routers05.msg_bytes.Writeback_Control::0         6048                      
system.ruby.network.routers06.percent_links_utilized     0.047784                      
system.ruby.network.routers06.msg_count.Control::0      1651931                      
system.ruby.network.routers06.msg_count.Request_Control::2        97337                      
system.ruby.network.routers06.msg_count.Response_Data::1      1652085                      
system.ruby.network.routers06.msg_count.Response_Control::1      1565709                      
system.ruby.network.routers06.msg_count.Response_Control::2      1545679                      
system.ruby.network.routers06.msg_count.Writeback_Data::0        22509                      
system.ruby.network.routers06.msg_count.Writeback_Data::1        37683                      
system.ruby.network.routers06.msg_count.Writeback_Control::0      1483619                      
system.ruby.network.routers06.msg_bytes.Control::0     13215448                      
system.ruby.network.routers06.msg_bytes.Request_Control::2       778696                      
system.ruby.network.routers06.msg_bytes.Response_Data::1    118950120                      
system.ruby.network.routers06.msg_bytes.Response_Control::1     12525672                      
system.ruby.network.routers06.msg_bytes.Response_Control::2     12365432                      
system.ruby.network.routers06.msg_bytes.Writeback_Data::0      1620648                      
system.ruby.network.routers06.msg_bytes.Writeback_Data::1      2713176                      
system.ruby.network.routers06.msg_bytes.Writeback_Control::0     11868952                      
system.ruby.network.routers07.percent_links_utilized     0.048628                      
system.ruby.network.routers07.msg_count.Control::0      1662805                      
system.ruby.network.routers07.msg_count.Request_Control::2       492593                      
system.ruby.network.routers07.msg_count.Response_Data::1      1717352                      
system.ruby.network.routers07.msg_count.Response_Control::1      1594915                      
system.ruby.network.routers07.msg_count.Response_Control::2      1223497                      
system.ruby.network.routers07.msg_count.Writeback_Data::0        32927                      
system.ruby.network.routers07.msg_count.Writeback_Data::1        31627                      
system.ruby.network.routers07.msg_count.Writeback_Control::0      1128296                      
system.ruby.network.routers07.msg_bytes.Control::0     13302440                      
system.ruby.network.routers07.msg_bytes.Request_Control::2      3940744                      
system.ruby.network.routers07.msg_bytes.Response_Data::1    123649344                      
system.ruby.network.routers07.msg_bytes.Response_Control::1     12759320                      
system.ruby.network.routers07.msg_bytes.Response_Control::2      9787976                      
system.ruby.network.routers07.msg_bytes.Writeback_Data::0      2370744                      
system.ruby.network.routers07.msg_bytes.Writeback_Data::1      2277144                      
system.ruby.network.routers07.msg_bytes.Writeback_Control::0      9026368                      
system.ruby.network.routers08.percent_links_utilized     0.046359                      
system.ruby.network.routers08.msg_count.Control::0      1645945                      
system.ruby.network.routers08.msg_count.Request_Control::2       439681                      
system.ruby.network.routers08.msg_count.Response_Data::1      1649094                      
system.ruby.network.routers08.msg_count.Response_Control::1      1590349                      
system.ruby.network.routers08.msg_count.Response_Control::2      1194789                      
system.ruby.network.routers08.msg_count.Writeback_Data::0        21845                      
system.ruby.network.routers08.msg_count.Writeback_Data::1         6636                      
system.ruby.network.routers08.msg_count.Writeback_Control::0      1137034                      
system.ruby.network.routers08.msg_bytes.Control::0     13167560                      
system.ruby.network.routers08.msg_bytes.Request_Control::2      3517448                      
system.ruby.network.routers08.msg_bytes.Response_Data::1    118734768                      
system.ruby.network.routers08.msg_bytes.Response_Control::1     12722792                      
system.ruby.network.routers08.msg_bytes.Response_Control::2      9558312                      
system.ruby.network.routers08.msg_bytes.Writeback_Data::0      1572840                      
system.ruby.network.routers08.msg_bytes.Writeback_Data::1       477792                      
system.ruby.network.routers08.msg_bytes.Writeback_Control::0      9096272                      
system.ruby.network.routers09.percent_links_utilized     0.047291                      
system.ruby.network.routers09.msg_count.Control::0      1658397                      
system.ruby.network.routers09.msg_count.Request_Control::2       449103                      
system.ruby.network.routers09.msg_count.Response_Data::1      1658716                      
system.ruby.network.routers09.msg_count.Response_Control::1      1566455                      
system.ruby.network.routers09.msg_count.Response_Control::2      1205800                      
system.ruby.network.routers09.msg_count.Writeback_Data::0        21602                      
system.ruby.network.routers09.msg_count.Writeback_Data::1        43185                      
system.ruby.network.routers09.msg_count.Writeback_Control::0      1139094                      
system.ruby.network.routers09.msg_bytes.Control::0     13267176                      
system.ruby.network.routers09.msg_bytes.Request_Control::2      3592824                      
system.ruby.network.routers09.msg_bytes.Response_Data::1    119427552                      
system.ruby.network.routers09.msg_bytes.Response_Control::1     12531640                      
system.ruby.network.routers09.msg_bytes.Response_Control::2      9646400                      
system.ruby.network.routers09.msg_bytes.Writeback_Data::0      1555344                      
system.ruby.network.routers09.msg_bytes.Writeback_Data::1      3109320                      
system.ruby.network.routers09.msg_bytes.Writeback_Control::0      9112752                      
system.ruby.network.routers10.percent_links_utilized     0.606779                      
system.ruby.network.routers10.msg_count.Control::0     16990345                      
system.ruby.network.routers10.msg_count.Request_Control::2       588555                      
system.ruby.network.routers10.msg_count.Response_Data::1     20558884                      
system.ruby.network.routers10.msg_count.Response_Control::1     18012488                      
system.ruby.network.routers10.msg_count.Response_Control::2      9532362                      
system.ruby.network.routers10.msg_count.Writeback_Data::0      4455472                      
system.ruby.network.routers10.msg_count.Writeback_Data::1       123397                      
system.ruby.network.routers10.msg_count.Writeback_Control::0      4888799                      
system.ruby.network.routers10.msg_bytes.Control::0    135922760                      
system.ruby.network.routers10.msg_bytes.Request_Control::2      4708440                      
system.ruby.network.routers10.msg_bytes.Response_Data::1   1480239648                      
system.ruby.network.routers10.msg_bytes.Response_Control::1    144099904                      
system.ruby.network.routers10.msg_bytes.Response_Control::2     76258896                      
system.ruby.network.routers10.msg_bytes.Writeback_Data::0    320793984                      
system.ruby.network.routers10.msg_bytes.Writeback_Data::1      8884584                      
system.ruby.network.routers10.msg_bytes.Writeback_Control::0     39110392                      
system.ruby.network.routers11.percent_links_utilized     0.234126                      
system.ruby.network.routers11.msg_count.Control::0      6008661                      
system.ruby.network.routers11.msg_count.Response_Data::1     10360666                      
system.ruby.network.routers11.msg_count.Response_Control::1      7337637                      
system.ruby.network.routers11.msg_bytes.Control::0     48069288                      
system.ruby.network.routers11.msg_bytes.Response_Data::1    745967952                      
system.ruby.network.routers11.msg_bytes.Response_Control::1     58701096                      
system.ruby.network.routers12.percent_links_utilized     0.104134                      
system.ruby.network.routers12.msg_count.Control::0     16990345                      
system.ruby.network.routers12.msg_count.Request_Control::2      1483103                      
system.ruby.network.routers12.msg_count.Response_Data::1     21371404                      
system.ruby.network.routers12.msg_count.Response_Control::1     18012546                      
system.ruby.network.routers12.msg_count.Response_Control::2      9532362                      
system.ruby.network.routers12.msg_count.Writeback_Data::0      4455472                      
system.ruby.network.routers12.msg_count.Writeback_Data::1       123397                      
system.ruby.network.routers12.msg_count.Writeback_Control::0      4888799                      
system.ruby.network.routers12.msg_bytes.Control::0    135922760                      
system.ruby.network.routers12.msg_bytes.Request_Control::2     11864824                      
system.ruby.network.routers12.msg_bytes.Response_Data::1   1538741088                      
system.ruby.network.routers12.msg_bytes.Response_Control::1    144100368                      
system.ruby.network.routers12.msg_bytes.Response_Control::2     76258896                      
system.ruby.network.routers12.msg_bytes.Writeback_Data::0    320793984                      
system.ruby.network.routers12.msg_bytes.Writeback_Data::1      8884584                      
system.ruby.network.routers12.msg_bytes.Writeback_Control::0     39110392                      
system.ruby.network.msg_count.Control        50971035                      
system.ruby.network.msg_count.Request_Control      3554761                      
system.ruby.network.msg_count.Response_Data     63330804                      
system.ruby.network.msg_count.Response_Control     82634724                      
system.ruby.network.msg_count.Writeback_Data     13736607                      
system.ruby.network.msg_count.Writeback_Control     14666397                      
system.ruby.network.msg_byte.Control        407768280                      
system.ruby.network.msg_byte.Request_Control     28438088                      
system.ruby.network.msg_byte.Response_Data   4559817888                      
system.ruby.network.msg_byte.Response_Control    661077792                      
system.ruby.network.msg_byte.Writeback_Data    989035704                      
system.ruby.network.msg_byte.Writeback_Control    117331176                      
system.ruby.network.routers00.throttle0.link_utilization            0                      
system.ruby.network.routers00.throttle1.link_utilization            0                      
system.ruby.network.routers01.throttle0.link_utilization            0                      
system.ruby.network.routers01.throttle1.link_utilization            0                      
system.ruby.network.routers02.throttle0.link_utilization            0                      
system.ruby.network.routers02.throttle1.link_utilization            0                      
system.ruby.network.routers03.throttle0.link_utilization            0                      
system.ruby.network.routers03.throttle1.link_utilization            0                      
system.ruby.network.routers04.throttle0.link_utilization            0                      
system.ruby.network.routers04.throttle1.link_utilization            0                      
system.ruby.network.routers05.throttle0.link_utilization     0.191641                      
system.ruby.network.routers05.throttle0.msg_count.Request_Control::2         4389                      
system.ruby.network.routers05.throttle0.msg_count.Response_Data::1      4362568                      
system.ruby.network.routers05.throttle0.msg_count.Response_Control::1      4357434                      
system.ruby.network.routers05.throttle0.msg_bytes.Request_Control::2        35112                      
system.ruby.network.routers05.throttle0.msg_bytes.Response_Data::1    314104896                      
system.ruby.network.routers05.throttle0.msg_bytes.Response_Control::1     34859472                      
system.ruby.network.routers05.throttle1.link_utilization     0.210747                      
system.ruby.network.routers05.throttle1.msg_count.Control::0      4362606                      
system.ruby.network.routers05.throttle1.msg_count.Response_Data::1           35                      
system.ruby.network.routers05.throttle1.msg_count.Response_Control::1          105                      
system.ruby.network.routers05.throttle1.msg_count.Response_Control::2      4362597                      
system.ruby.network.routers05.throttle1.msg_count.Writeback_Data::0      4356589                      
system.ruby.network.routers05.throttle1.msg_count.Writeback_Data::1         4266                      
system.ruby.network.routers05.throttle1.msg_count.Writeback_Control::0          756                      
system.ruby.network.routers05.throttle1.msg_bytes.Control::0     34900848                      
system.ruby.network.routers05.throttle1.msg_bytes.Response_Data::1         2520                      
system.ruby.network.routers05.throttle1.msg_bytes.Response_Control::1          840                      
system.ruby.network.routers05.throttle1.msg_bytes.Response_Control::2     34900776                      
system.ruby.network.routers05.throttle1.msg_bytes.Writeback_Data::0    313674408                      
system.ruby.network.routers05.throttle1.msg_bytes.Writeback_Data::1       307152                      
system.ruby.network.routers05.throttle1.msg_bytes.Writeback_Control::0         6048                      
system.ruby.network.routers06.throttle0.link_utilization     0.072355                      
system.ruby.network.routers06.throttle0.msg_count.Request_Control::2        97337                      
system.ruby.network.routers06.throttle0.msg_count.Response_Data::1      1651928                      
system.ruby.network.routers06.throttle0.msg_count.Response_Control::1      1506135                      
system.ruby.network.routers06.throttle0.msg_bytes.Request_Control::2       778696                      
system.ruby.network.routers06.throttle0.msg_bytes.Response_Data::1    118938816                      
system.ruby.network.routers06.throttle0.msg_bytes.Response_Control::1     12049080                      
system.ruby.network.routers06.throttle1.link_utilization     0.023212                      
system.ruby.network.routers06.throttle1.msg_count.Control::0      1651931                      
system.ruby.network.routers06.throttle1.msg_count.Response_Data::1          157                      
system.ruby.network.routers06.throttle1.msg_count.Response_Control::1        59574                      
system.ruby.network.routers06.throttle1.msg_count.Response_Control::2      1545679                      
system.ruby.network.routers06.throttle1.msg_count.Writeback_Data::0        22509                      
system.ruby.network.routers06.throttle1.msg_count.Writeback_Data::1        37683                      
system.ruby.network.routers06.throttle1.msg_count.Writeback_Control::0      1483619                      
system.ruby.network.routers06.throttle1.msg_bytes.Control::0     13215448                      
system.ruby.network.routers06.throttle1.msg_bytes.Response_Data::1        11304                      
system.ruby.network.routers06.throttle1.msg_bytes.Response_Control::1       476592                      
system.ruby.network.routers06.throttle1.msg_bytes.Response_Control::2     12365432                      
system.ruby.network.routers06.throttle1.msg_bytes.Writeback_Data::0      1620648                      
system.ruby.network.routers06.throttle1.msg_bytes.Writeback_Data::1      2713176                      
system.ruby.network.routers06.throttle1.msg_bytes.Writeback_Control::0     11868952                      
system.ruby.network.routers07.throttle0.link_utilization     0.073006                      
system.ruby.network.routers07.throttle0.msg_count.Request_Control::2       492593                      
system.ruby.network.routers07.throttle0.msg_count.Response_Data::1      1662804                      
system.ruby.network.routers07.throttle0.msg_count.Response_Control::1      1161225                      
system.ruby.network.routers07.throttle0.msg_bytes.Request_Control::2      3940744                      
system.ruby.network.routers07.throttle0.msg_bytes.Response_Data::1    119721888                      
system.ruby.network.routers07.throttle0.msg_bytes.Response_Control::1      9289800                      
system.ruby.network.routers07.throttle1.link_utilization     0.024250                      
system.ruby.network.routers07.throttle1.msg_count.Control::0      1662805                      
system.ruby.network.routers07.throttle1.msg_count.Response_Data::1        54548                      
system.ruby.network.routers07.throttle1.msg_count.Response_Control::1       433690                      
system.ruby.network.routers07.throttle1.msg_count.Response_Control::2      1223497                      
system.ruby.network.routers07.throttle1.msg_count.Writeback_Data::0        32927                      
system.ruby.network.routers07.throttle1.msg_count.Writeback_Data::1        31627                      
system.ruby.network.routers07.throttle1.msg_count.Writeback_Control::0      1128296                      
system.ruby.network.routers07.throttle1.msg_bytes.Control::0     13302440                      
system.ruby.network.routers07.throttle1.msg_bytes.Response_Data::1      3927456                      
system.ruby.network.routers07.throttle1.msg_bytes.Response_Control::1      3469520                      
system.ruby.network.routers07.throttle1.msg_bytes.Response_Control::2      9787976                      
system.ruby.network.routers07.throttle1.msg_bytes.Writeback_Data::0      2370744                      
system.ruby.network.routers07.throttle1.msg_bytes.Writeback_Data::1      2277144                      
system.ruby.network.routers07.throttle1.msg_bytes.Writeback_Control::0      9026368                      
system.ruby.network.routers08.throttle0.link_utilization     0.072097                      
system.ruby.network.routers08.throttle0.msg_count.Request_Control::2       439681                      
system.ruby.network.routers08.throttle0.msg_count.Response_Data::1      1645944                      
system.ruby.network.routers08.throttle0.msg_count.Response_Control::1      1158881                      
system.ruby.network.routers08.throttle0.msg_bytes.Request_Control::2      3517448                      
system.ruby.network.routers08.throttle0.msg_bytes.Response_Data::1    118507968                      
system.ruby.network.routers08.throttle0.msg_bytes.Response_Control::1      9271048                      
system.ruby.network.routers08.throttle1.link_utilization     0.020620                      
system.ruby.network.routers08.throttle1.msg_count.Control::0      1645945                      
system.ruby.network.routers08.throttle1.msg_count.Response_Data::1         3150                      
system.ruby.network.routers08.throttle1.msg_count.Response_Control::1       431468                      
system.ruby.network.routers08.throttle1.msg_count.Response_Control::2      1194789                      
system.ruby.network.routers08.throttle1.msg_count.Writeback_Data::0        21845                      
system.ruby.network.routers08.throttle1.msg_count.Writeback_Data::1         6636                      
system.ruby.network.routers08.throttle1.msg_count.Writeback_Control::0      1137034                      
system.ruby.network.routers08.throttle1.msg_bytes.Control::0     13167560                      
system.ruby.network.routers08.throttle1.msg_bytes.Response_Data::1       226800                      
system.ruby.network.routers08.throttle1.msg_bytes.Response_Control::1      3451744                      
system.ruby.network.routers08.throttle1.msg_bytes.Response_Control::2      9558312                      
system.ruby.network.routers08.throttle1.msg_bytes.Writeback_Data::0      1572840                      
system.ruby.network.routers08.throttle1.msg_bytes.Writeback_Data::1       477792                      
system.ruby.network.routers08.throttle1.msg_bytes.Writeback_Control::0      9096272                      
system.ruby.network.routers09.throttle0.link_utilization     0.072639                      
system.ruby.network.routers09.throttle0.msg_count.Request_Control::2       449103                      
system.ruby.network.routers09.throttle0.msg_count.Response_Data::1      1658396                      
system.ruby.network.routers09.throttle0.msg_count.Response_Control::1      1160698                      
system.ruby.network.routers09.throttle0.msg_bytes.Request_Control::2      3592824                      
system.ruby.network.routers09.throttle0.msg_bytes.Response_Data::1    119404512                      
system.ruby.network.routers09.throttle0.msg_bytes.Response_Control::1      9285584                      
system.ruby.network.routers09.throttle1.link_utilization     0.021943                      
system.ruby.network.routers09.throttle1.msg_count.Control::0      1658397                      
system.ruby.network.routers09.throttle1.msg_count.Response_Data::1          320                      
system.ruby.network.routers09.throttle1.msg_count.Response_Control::1       405757                      
system.ruby.network.routers09.throttle1.msg_count.Response_Control::2      1205800                      
system.ruby.network.routers09.throttle1.msg_count.Writeback_Data::0        21602                      
system.ruby.network.routers09.throttle1.msg_count.Writeback_Data::1        43185                      
system.ruby.network.routers09.throttle1.msg_count.Writeback_Control::0      1139094                      
system.ruby.network.routers09.throttle1.msg_bytes.Control::0     13267176                      
system.ruby.network.routers09.throttle1.msg_bytes.Response_Data::1        23040                      
system.ruby.network.routers09.throttle1.msg_bytes.Response_Control::1      3246056                      
system.ruby.network.routers09.throttle1.msg_bytes.Response_Control::2      9646400                      
system.ruby.network.routers09.throttle1.msg_bytes.Writeback_Data::0      1555344                      
system.ruby.network.routers09.throttle1.msg_bytes.Writeback_Data::1      3109320                      
system.ruby.network.routers09.throttle1.msg_bytes.Writeback_Control::0      9112752                      
system.ruby.network.routers10.throttle0.link_utilization     0.562857                      
system.ruby.network.routers10.throttle0.msg_count.Control::0     10981684                      
system.ruby.network.routers10.throttle0.msg_count.Response_Data::1      6037759                      
system.ruby.network.routers10.throttle0.msg_count.Response_Control::1      7175357                      
system.ruby.network.routers10.throttle0.msg_count.Response_Control::2      9532362                      
system.ruby.network.routers10.throttle0.msg_count.Writeback_Data::0      4455472                      
system.ruby.network.routers10.throttle0.msg_count.Writeback_Data::1       123397                      
system.ruby.network.routers10.throttle0.msg_count.Writeback_Control::0      4888799                      
system.ruby.network.routers10.throttle0.msg_bytes.Control::0     87853472                      
system.ruby.network.routers10.throttle0.msg_bytes.Response_Data::1    434718648                      
system.ruby.network.routers10.throttle0.msg_bytes.Response_Control::1     57402856                      
system.ruby.network.routers10.throttle0.msg_bytes.Response_Control::2     76258896                      
system.ruby.network.routers10.throttle0.msg_bytes.Writeback_Data::0    320793984                      
system.ruby.network.routers10.throttle0.msg_bytes.Writeback_Data::1      8884584                      
system.ruby.network.routers10.throttle0.msg_bytes.Writeback_Control::0     39110392                      
system.ruby.network.routers10.throttle1.link_utilization     0.650700                      
system.ruby.network.routers10.throttle1.msg_count.Control::0      6008661                      
system.ruby.network.routers10.throttle1.msg_count.Request_Control::2       588555                      
system.ruby.network.routers10.throttle1.msg_count.Response_Data::1     14521125                      
system.ruby.network.routers10.throttle1.msg_count.Response_Control::1     10837131                      
system.ruby.network.routers10.throttle1.msg_bytes.Control::0     48069288                      
system.ruby.network.routers10.throttle1.msg_bytes.Request_Control::2      4708440                      
system.ruby.network.routers10.throttle1.msg_bytes.Response_Data::1   1045521000                      
system.ruby.network.routers10.throttle1.msg_bytes.Response_Control::1     86697048                      
system.ruby.network.routers11.throttle0.link_utilization     0.205016                      
system.ruby.network.routers11.throttle0.msg_count.Control::0      6008661                      
system.ruby.network.routers11.throttle0.msg_count.Response_Data::1      4352005                      
system.ruby.network.routers11.throttle0.msg_count.Response_Control::1      1492816                      
system.ruby.network.routers11.throttle0.msg_bytes.Control::0     48069288                      
system.ruby.network.routers11.throttle0.msg_bytes.Response_Data::1    313344360                      
system.ruby.network.routers11.throttle0.msg_bytes.Response_Control::1     11942528                      
system.ruby.network.routers11.throttle1.link_utilization     0.263237                      
system.ruby.network.routers11.throttle1.msg_count.Response_Data::1      6008661                      
[...]
system.ruby.L1Cache_Controller.I.L1_Replacement::total            6                      
system.ruby.L1Cache_Controller.S.Load    |           1     50.00%     50.00% |           1     50.00%    100.00% |           0      0.00%    100.00% |           0      0.00%    100.00% |           0      0.00%    100.00%
system.ruby.L1Cache_Controller.S.Load::total            2                      
system.ruby.L1Cache_Controller.S.Store   |          38     86.36%     86.36% |           3      6.82%     93.18% |           1      2.27%     95.45% |           1      2.27%     97.73% |           1      2.27%    100.00%
system.ruby.L1Cache_Controller.S.Store::total           44                      
system.ruby.L1Cache_Controller.S.L0_Invalidate_Own |           1      0.00%      0.00% |      102966      7.13%      7.13% |      431583     29.87%     37.00% |      467601     32.36%     69.36% |      442653     30.64%    100.00%
system.ruby.L1Cache_Controller.S.L0_Invalidate_Own::total      1444804                      
system.ruby.L1Cache_Controller.S.L0_Invalidate_Else |           3      0.01%      0.01% |         362      1.49%      1.51% |        8471     34.96%     36.46% |        8567     35.35%     71.81% |        6831     28.19%    100.00%
system.ruby.L1Cache_Controller.S.L0_Invalidate_Else::total        24234                      
system.ruby.L1Cache_Controller.SS.Load   |           2      0.04%      0.04% |          58      1.03%      1.07% |        3948     70.39%     71.46% |        1558     27.78%     99.23% |          43      0.77%    100.00%
system.ruby.L1Cache_Controller.SS.Load::total         5609                      
system.ruby.L1Cache_Controller.SS.Inv    |          18      0.07%      0.07% |         376      1.54%      1.61% |        8611     35.24%     36.86% |        8588     35.15%     72.01% |        6840     27.99%    100.00%
system.ruby.L1Cache_Controller.SS.Inv::total        24433                      
system.ruby.L1Cache_Controller.SS.L1_Replacement |           1      0.00%      0.00% |      102969      7.01%      7.01% |      454764     30.98%     37.99% |      467594     31.85%     69.84% |      442760     30.16%    100.00%
system.ruby.L1Cache_Controller.SS.L1_Replacement::total      1468088                      
system.ruby.L1Cache_Controller.E.WriteBack |        1093      0.02%      0.02% |     1521421     30.27%     30.29% |     1178934     23.45%     53.74% |     1143382     22.75%     76.48% |     1182101     23.52%    100.00%
system.ruby.L1Cache_Controller.E.WriteBack::total      5026931                      
system.ruby.L1Cache_Controller.E.L0_Invalidate_Own |       15063     15.80%     15.80% |       17690     18.56%     34.36% |       28532     29.93%     64.29% |       17141     17.98%     82.28% |       16894     17.72%    100.00%
system.ruby.L1Cache_Controller.E.L0_Invalidate_Own::total        95320                      
system.ruby.L1Cache_Controller.E.L0_Invalidate_Else |         102      0.72%      0.72% |         768      5.39%      6.11% |       10366     72.79%     78.90% |        1938     13.61%     92.51% |        1066      7.49%    100.00%
system.ruby.L1Cache_Controller.E.L0_Invalidate_Else::total        14240                      
system.ruby.L1Cache_Controller.EE.Load   |           3     60.00%     60.00% |           0      0.00%     60.00% |           1     20.00%     80.00% |           1     20.00%    100.00% |           0      0.00%    100.00%
system.ruby.L1Cache_Controller.EE.Load::total            5                      
system.ruby.L1Cache_Controller.EE.Inv    |          87      1.80%      1.80% |         703     14.54%     16.34% |        2692     55.68%     72.02% |         370      7.65%     79.67% |         983     20.33%    100.00%
system.ruby.L1Cache_Controller.EE.Inv::total         4835                      
system.ruby.L1Cache_Controller.EE.L1_Replacement |       11884     13.14%     13.14% |       17255     19.08%     32.22% |       28089     31.06%     63.28% |       16726     18.50%     81.78% |       16477     18.22%    100.00%
system.ruby.L1Cache_Controller.EE.L1_Replacement::total        90431                      
system.ruby.L1Cache_Controller.EE.Fwd_GETX |           1    100.00%    100.00% |           0      0.00%    100.00% |           0      0.00%    100.00% |           0      0.00%    100.00% |           0      0.00%    100.00%
system.ruby.L1Cache_Controller.EE.Fwd_GETX::total            1                      
system.ruby.L1Cache_Controller.EE.Fwd_GETS |           4      0.04%      0.04% |          65      0.69%      0.73% |        7672     81.72%     82.46% |        1565     16.67%     99.13% |          82      0.87%    100.00%
system.ruby.L1Cache_Controller.EE.Fwd_GETS::total         9388                      
system.ruby.L1Cache_Controller.M.WriteBack |     4342019     87.54%     87.54% |      156850      3.16%     90.70% |      147206      2.97%     93.67% |      163569      3.30%     96.97% |      150474      3.03%    100.00%
system.ruby.L1Cache_Controller.M.WriteBack::total      4960118                      
system.ruby.L1Cache_Controller.M.L0_Invalidate_Own |        3208     81.86%     81.86% |         224      5.72%     87.57% |         155      3.96%     91.53% |         164      4.18%     95.71% |         168      4.29%    100.00%
system.ruby.L1Cache_Controller.M.L0_Invalidate_Own::total         3919                      
system.ruby.L1Cache_Controller.M.L0_Invalidate_Else |         518     42.74%     42.74% |         168     13.86%     56.60% |         212     17.49%     74.09% |         165     13.61%     87.71% |         149     12.29%    100.00%
system.ruby.L1Cache_Controller.M.L0_Invalidate_Else::total         1212                      
system.ruby.L1Cache_Controller.MM.Load   |         149      0.02%      0.02% |      152186     25.39%     25.42% |      142495     23.77%     49.19% |      158831     26.50%     75.69% |      145719     24.31%    100.00%
system.ruby.L1Cache_Controller.MM.Load::total       599380                      
system.ruby.L1Cache_Controller.MM.Store  |          30    100.00%    100.00% |           0      0.00%    100.00% |           0      0.00%    100.00% |           0      0.00%    100.00% |           0      0.00%    100.00%
system.ruby.L1Cache_Controller.MM.Store::total           30                      
system.ruby.L1Cache_Controller.MM.Inv    |        4266      3.46%      3.46% |       37682     30.54%     34.00% |       31626     25.63%     59.63% |        6626      5.37%     65.00% |       43185     35.00%    100.00%
system.ruby.L1Cache_Controller.MM.Inv::total       123385                      
system.ruby.L1Cache_Controller.MM.L1_Replacement |     4345461     46.96%     46.96% |     1488873     16.09%     63.05% |     1133134     12.25%     75.29% |     1142153     12.34%     87.64% |     1144219     12.36%    100.00%
system.ruby.L1Cache_Controller.MM.L1_Replacement::total      9253840                      
system.ruby.L1Cache_Controller.MM.Fwd_GETX |           0      0.00%      0.00% |           3     23.08%     23.08% |           4     30.77%     53.85% |           4     30.77%     84.62% |           2     15.38%    100.00%
system.ruby.L1Cache_Controller.MM.Fwd_GETX::total           13                      
system.ruby.L1Cache_Controller.MM.Fwd_GETS |          13      0.07%      0.07% |          12      0.06%      0.13% |       19600     99.44%     99.57% |           8      0.04%     99.61% |          77      0.39%    100.00%
system.ruby.L1Cache_Controller.MM.Fwd_GETS::total        19710                      
system.ruby.L1Cache_Controller.IS.Data_Exclusive |       16876      0.33%      0.33% |     1539882     29.98%     30.30% |     1217833     23.71%     54.01% |     1162464     22.63%     76.64% |     1200063     23.36%    100.00%
system.ruby.L1Cache_Controller.IS.Data_Exclusive::total      5137118                      
system.ruby.L1Cache_Controller.IS.DataS_fromL1 |          38      0.13%      0.13% |         689      2.37%      2.50% |         540      1.86%      4.35% |       27214     93.53%     97.88% |         617      2.12%    100.00%
system.ruby.L1Cache_Controller.IS.DataS_fromL1::total        29098                      
system.ruby.L1Cache_Controller.IS.Data_all_Acks |           9      0.00%      0.00% |      106252      7.33%      7.33% |      439308     30.31%     37.64% |      451156     31.13%     68.77% |      452597     31.23%    100.00%
system.ruby.L1Cache_Controller.IS.Data_all_Acks::total      1449322                      
system.ruby.L1Cache_Controller.IM.Data_all_Acks |     4345645     99.53%     99.53% |        5105      0.12%     99.65% |        5123      0.12%     99.77% |        5110      0.12%     99.88% |        5119      0.12%    100.00%
system.ruby.L1Cache_Controller.IM.Data_all_Acks::total      4366102                      
system.ruby.L1Cache_Controller.SM.Ack    |          51     87.93%     87.93% |           4      6.90%     94.83% |           1      1.72%     96.55% |           1      1.72%     98.28% |           1      1.72%    100.00%
system.ruby.L1Cache_Controller.SM.Ack::total           58                      
system.ruby.L1Cache_Controller.SM.Ack_all |          38     86.36%     86.36% |           3      6.82%     93.18% |           1      2.27%     95.45% |           1      2.27%     97.73% |           1      2.27%    100.00%
system.ruby.L1Cache_Controller.SM.Ack_all::total           44                      
system.ruby.L1Cache_Controller.M_I.Inv   |           0      0.00%      0.00% |           1      8.33%      8.33% |           1      8.33%     16.67% |          10     83.33%    100.00% |           0      0.00%    100.00%
system.ruby.L1Cache_Controller.M_I.Inv::total           12                      
system.ruby.L1Cache_Controller.M_I.WB_Ack |     4357345     46.63%     46.63% |     1506127     16.12%     62.75% |     1161222     12.43%     75.18% |     1158869     12.40%     87.58% |     1160696     12.42%    100.00%
system.ruby.L1Cache_Controller.M_I.WB_Ack::total      9344259                      
system.ruby.L1Cache_Controller.SINK_WB_ACK.WB_Ack |           0      0.00%      0.00% |           1      8.33%      8.33% |           1      8.33%     16.67% |          10     83.33%    100.00% |           0      0.00%    100.00%
system.ruby.L1Cache_Controller.SINK_WB_ACK.WB_Ack::total           12                      
system.ruby.L1Cache_Controller.S_IL0.L0_Invalidate_Own |           1      0.00%      0.00% |      102966      7.13%      7.13% |      431584     29.87%     37.00% |      467602     32.36%     69.36% |      442653     30.64%    100.00%
system.ruby.L1Cache_Controller.S_IL0.L0_Invalidate_Own::total      1444806                      
system.ruby.L1Cache_Controller.S_IL0.L0_Invalidate_Else |           3      0.01%      0.01% |         362      1.49%      1.50% |        8484     34.97%     36.48% |        8580     35.37%     71.84% |        6831     28.16%    100.00%
system.ruby.L1Cache_Controller.S_IL0.L0_Invalidate_Else::total        24260                      
system.ruby.L1Cache_Controller.S_IL0.L0_Ack |           4      0.00%      0.00% |      103328      7.03%      7.03% |      440054     29.96%     36.99% |      476168     32.41%     69.40% |      449484     30.60%    100.00%
system.ruby.L1Cache_Controller.S_IL0.L0_Ack::total      1469038                      
system.ruby.L1Cache_Controller.E_IL0.WriteBack |           0      0.00%      0.00% |           0      0.00%      0.00% |           1    100.00%    100.00% |           0      0.00%    100.00% |           0      0.00%    100.00%
system.ruby.L1Cache_Controller.E_IL0.WriteBack::total            1                      
system.ruby.L1Cache_Controller.E_IL0.L0_DataAck |        3186     65.03%     65.03% |         435      8.88%     73.91% |         443      9.04%     82.96% |         417      8.51%     91.47% |         418      8.53%    100.00%
system.ruby.L1Cache_Controller.E_IL0.L0_DataAck::total         4899                      
system.ruby.L1Cache_Controller.E_IL0.L0_Invalidate_Own |       15063     15.80%     15.80% |       17690     18.56%     34.36% |       28532     29.93%     64.29% |       17141     17.98%     82.28% |       16894     17.72%    100.00%
system.ruby.L1Cache_Controller.E_IL0.L0_Invalidate_Own::total        95320                      
system.ruby.L1Cache_Controller.E_IL0.L0_Invalidate_Else |         102      0.72%      0.72% |         768      5.39%      6.11% |       10366     72.79%     78.90% |        1938     13.61%     92.51% |        1066      7.49%    100.00%
system.ruby.L1Cache_Controller.E_IL0.L0_Invalidate_Else::total        14240                      
system.ruby.L1Cache_Controller.E_IL0.L0_Ack |       11979     11.45%     11.45% |       18023     17.22%     28.67% |       38454     36.74%     65.41% |       18662     17.83%     83.24% |       17542     16.76%    100.00%
system.ruby.L1Cache_Controller.E_IL0.L0_Ack::total       104660                      
system.ruby.L1Cache_Controller.M_IL0.L0_DataAck |        3690     92.09%     92.09% |          69      1.72%     93.81% |         108      2.70%     96.51% |          64      1.60%     98.10% |          76      1.90%    100.00%
system.ruby.L1Cache_Controller.M_IL0.L0_DataAck::total         4007                      
system.ruby.L1Cache_Controller.M_IL0.L0_Invalidate_Own |        3208     81.86%     81.86% |         224      5.72%     87.57% |         155      3.96%     91.53% |         164      4.18%     95.71% |         168      4.29%    100.00%
system.ruby.L1Cache_Controller.M_IL0.L0_Invalidate_Own::total         3919                      
system.ruby.L1Cache_Controller.M_IL0.L0_Invalidate_Else |         518     42.74%     42.74% |         168     13.86%     56.60% |         212     17.49%     74.09% |         165     13.61%     87.71% |         149     12.29%    100.00%
system.ruby.L1Cache_Controller.M_IL0.L0_Invalidate_Else::total         1212                      
system.ruby.L1Cache_Controller.M_IL0.L0_Ack |          36      3.20%      3.20% |         323     28.74%     31.94% |         259     23.04%     54.98% |         265     23.58%     78.56% |         241     21.44%    100.00%
system.ruby.L1Cache_Controller.M_IL0.L0_Ack::total         1124                      
system.ruby.L1Cache_Controller.MM_IL0.Inv |           0      0.00%      0.00% |           0      0.00%      0.00% |           1    100.00%    100.00% |           0      0.00%    100.00% |           0      0.00%    100.00%
system.ruby.L1Cache_Controller.MM_IL0.Inv::total            1                      
system.ruby.L1Cache_Controller.MM_IL0.L0_Ack |           0      0.00%      0.00% |           0      0.00%      0.00% |           1    100.00%    100.00% |           0      0.00%    100.00% |           0      0.00%    100.00%
system.ruby.L1Cache_Controller.MM_IL0.L0_Ack::total            1                      
system.ruby.L2Cache_Controller.L1_GETS        6615871      0.00%      0.00%
system.ruby.L2Cache_Controller.L1_GETX        4366115      0.00%      0.00%
system.ruby.L2Cache_Controller.L1_UPGRADE           44      0.00%      0.00%
system.ruby.L2Cache_Controller.L1_PUTX        9344259      0.00%      0.00%
system.ruby.L2Cache_Controller.L1_PUTX_old           24      0.00%      0.00%
system.ruby.L2Cache_Controller.L2_Replacement      4345349      0.00%      0.00%
system.ruby.L2Cache_Controller.L2_Replacement_clean      1499472      0.00%      0.00%
system.ruby.L2Cache_Controller.Mem_Data       6008661      0.00%      0.00%
system.ruby.L2Cache_Controller.Mem_Ack        5844821      0.00%      0.00%
system.ruby.L2Cache_Controller.WB_Data          16115      0.00%      0.00%
system.ruby.L2Cache_Controller.WB_Data_clean       136380      0.00%      0.00%
system.ruby.L2Cache_Controller.Ack             894534      0.00%      0.00%
system.ruby.L2Cache_Controller.Ack_all         436002      0.00%      0.00%
system.ruby.L2Cache_Controller.Unblock          29098      0.00%      0.00%
system.ruby.L2Cache_Controller.Exclusive_Unblock      9503264      0.00%      0.00%
system.ruby.L2Cache_Controller.NP.L1_GETS      1645871      0.00%      0.00%
system.ruby.L2Cache_Controller.NP.L1_GETX      4362790      0.00%      0.00%
system.ruby.L2Cache_Controller.NP.L1_PUTX_old           12      0.00%      0.00%
system.ruby.L2Cache_Controller.SS.L1_GETS       236409      0.00%      0.00%
system.ruby.L2Cache_Controller.SS.L1_UPGRADE           44      0.00%      0.00%
system.ruby.L2Cache_Controller.SS.L2_Replacement         9827      0.00%      0.00%
system.ruby.L2Cache_Controller.SS.L2_Replacement_clean       421340      0.00%      0.00%
system.ruby.L2Cache_Controller.M.L1_GETS      3920752      0.00%      0.00%
system.ruby.L2Cache_Controller.M.L1_GETX         3298      0.00%      0.00%
system.ruby.L2Cache_Controller.M.L2_Replacement      4333616      0.00%      0.00%
system.ruby.L2Cache_Controller.M.L2_Replacement_clean       951806      0.00%      0.00%
system.ruby.L2Cache_Controller.MT.L1_GETS        29098      0.00%      0.00%
system.ruby.L2Cache_Controller.MT.L1_GETX           14      0.00%      0.00%
system.ruby.L2Cache_Controller.MT.L1_PUTX      9344259      0.00%      0.00%
system.ruby.L2Cache_Controller.MT.L2_Replacement         1906      0.00%      0.00%
system.ruby.L2Cache_Controller.MT.L2_Replacement_clean       126326      0.00%      0.00%
system.ruby.L2Cache_Controller.M_I.L1_GETS          188      0.00%      0.00%
system.ruby.L2Cache_Controller.M_I.L1_GETX            9      0.00%      0.00%
system.ruby.L2Cache_Controller.M_I.Mem_Ack      5844821      0.00%      0.00%
system.ruby.L2Cache_Controller.MT_I.L1_PUTX_old           11      0.00%      0.00%
system.ruby.L2Cache_Controller.MT_I.WB_Data           35      0.00%      0.00%
system.ruby.L2Cache_Controller.MT_I.WB_Data_clean           95      0.00%      0.00%
system.ruby.L2Cache_Controller.MT_I.Ack_all         1776      0.00%      0.00%
system.ruby.L2Cache_Controller.MCT_I.L1_PUTX_old            1      0.00%      0.00%
system.ruby.L2Cache_Controller.MCT_I.WB_Data         6656      0.00%      0.00%
system.ruby.L2Cache_Controller.MCT_I.WB_Data_clean       116611      0.00%      0.00%
system.ruby.L2Cache_Controller.MCT_I.Ack_all         3059      0.00%      0.00%
system.ruby.L2Cache_Controller.I_I.Ack         868968      0.00%      0.00%
system.ruby.L2Cache_Controller.I_I.Ack_all       421340      0.00%      0.00%
system.ruby.L2Cache_Controller.S_I.Ack          25566      0.00%      0.00%
system.ruby.L2Cache_Controller.S_I.Ack_all         9827      0.00%      0.00%
system.ruby.L2Cache_Controller.ISS.L1_GETS       429505      0.00%      0.00%
system.ruby.L2Cache_Controller.ISS.Mem_Data      1216366      0.00%      0.00%
system.ruby.L2Cache_Controller.IS.L1_GETS       353903      0.00%      0.00%
system.ruby.L2Cache_Controller.IS.Mem_Data       429505      0.00%      0.00%
system.ruby.L2Cache_Controller.IM.L1_GETX            2      0.00%      0.00%
system.ruby.L2Cache_Controller.IM.Mem_Data      4362790      0.00%      0.00%
system.ruby.L2Cache_Controller.SS_MB.Exclusive_Unblock           44      0.00%      0.00%
system.ruby.L2Cache_Controller.MT_MB.L1_GETS           80      0.00%      0.00%
system.ruby.L2Cache_Controller.MT_MB.L1_GETX            2      0.00%      0.00%
system.ruby.L2Cache_Controller.MT_MB.Exclusive_Unblock      9503220      0.00%      0.00%
system.ruby.L2Cache_Controller.MT_IIB.L1_GETS           65      0.00%      0.00%
system.ruby.L2Cache_Controller.MT_IIB.WB_Data         9302      0.00%      0.00%
system.ruby.L2Cache_Controller.MT_IIB.WB_Data_clean        19273      0.00%      0.00%
system.ruby.L2Cache_Controller.MT_IIB.Unblock          523      0.00%      0.00%
system.ruby.L2Cache_Controller.MT_IB.WB_Data          122      0.00%      0.00%
system.ruby.L2Cache_Controller.MT_IB.WB_Data_clean          401      0.00%      0.00%
system.ruby.L2Cache_Controller.MT_SB.Unblock        28575      0.00%      0.00%

---------- End Simulation Statistics   ----------
