
---------- Begin Simulation Statistics ----------
sim_seconds                                  0.267194                       # Number of seconds simulated
sim_ticks                                267194292000                       # Number of ticks simulated
final_tick                               267194292000                       # Number of ticks from beginning of simulation (restored from checkpoints and never reset)
sim_freq                                 1000000000000                       # Frequency of simulated ticks
host_inst_rate                                 139494                       # Simulator instruction rate (inst/s)
host_op_rate                                   350811                       # Simulator op (including micro ops) rate (op/s)
host_tick_rate                              206979996                       # Simulator tick rate (ticks/s)
host_mem_usage                                 808824                       # Number of bytes of host memory used
host_seconds                                  1290.92                       # Real time elapsed on the host
sim_insts                                   180074997                       # Number of instructions simulated
sim_ops                                     452868121                       # Number of ops (including micro ops) simulated
system.voltage_domain.voltage                       1                       # Voltage in Volts
system.clk_domain.clock                          1000                       # Clock period in ticks
system.mem_ctrls.bytes_read::ruby.dir_cntrl0      6633472                       # Number of bytes read from this memory
system.mem_ctrls.bytes_read::total            6633472                       # Number of bytes read from this memory
system.mem_ctrls.num_reads::ruby.dir_cntrl0       103648                       # Number of read requests responded to by this memory
system.mem_ctrls.num_reads::total              103648                       # Number of read requests responded to by this memory
system.mem_ctrls.bw_read::ruby.dir_cntrl0     24826399                       # Total read bandwidth from this memory (bytes/s)
system.mem_ctrls.bw_read::total              24826399                       # Total read bandwidth from this memory (bytes/s)
system.mem_ctrls.bw_total::ruby.dir_cntrl0     24826399                       # Total bandwidth to/from this memory (bytes/s)
system.mem_ctrls.bw_total::total             24826399                       # Total bandwidth to/from this memory (bytes/s)
system.mem_ctrls.readReqs                      103648                       # Number of read requests accepted
system.mem_ctrls.writeReqs                          0                       # Number of write requests accepted
system.mem_ctrls.readBursts                    103648                       # Number of DRAM read bursts, including those serviced by the write queue
system.mem_ctrls.writeBursts                        0                       # Number of DRAM write bursts, including those merged in the write queue
system.mem_ctrls.bytesReadDRAM                6633472                       # Total number of bytes read from DRAM
system.mem_ctrls.bytesReadWrQ                       0                       # Total number of bytes read from write queue
system.mem_ctrls.bytesWritten                       0                       # Total number of bytes written to DRAM
system.mem_ctrls.bytesReadSys                 6633472                       # Total read bytes from the system interface side
system.mem_ctrls.bytesWrittenSys                    0                       # Total written bytes from the system interface side
system.mem_ctrls.servicedByWrQ                      0                       # Number of DRAM read bursts serviced by the write queue
system.mem_ctrls.mergedWrBursts                     0                       # Number of DRAM write bursts merged with an existing one
system.mem_ctrls.neitherReadNorWriteReqs            0                       # Number of requests that are neither read nor write
system.mem_ctrls.perBankRdBursts::0              6486                       # Per bank write bursts
system.mem_ctrls.perBankRdBursts::1              6512                       # Per bank write bursts
system.mem_ctrls.perBankRdBursts::2              6537                       # Per bank write bursts
system.mem_ctrls.perBankRdBursts::3              6346                       # Per bank write bursts
system.mem_ctrls.perBankRdBursts::4              6345                       # Per bank write bursts
system.mem_ctrls.perBankRdBursts::5              6392                       # Per bank write bursts
system.mem_ctrls.perBankRdBursts::6              6428                       # Per bank write bursts
system.mem_ctrls.perBankRdBursts::7              6419                       # Per bank write bursts
system.mem_ctrls.perBankRdBursts::8              6442                       # Per bank write bursts
system.mem_ctrls.perBankRdBursts::9              6566                       # Per bank write bursts
system.mem_ctrls.perBankRdBursts::10             6633                       # Per bank write bursts
system.mem_ctrls.perBankRdBursts::11             6674                       # Per bank write bursts
system.mem_ctrls.perBankRdBursts::12             6497                       # Per bank write bursts
system.mem_ctrls.perBankRdBursts::13             6483                       # Per bank write bursts
system.mem_ctrls.perBankRdBursts::14             6443                       # Per bank write bursts
system.mem_ctrls.perBankRdBursts::15             6445                       # Per bank write bursts
system.mem_ctrls.perBankWrBursts::0                 0                       # Per bank write bursts
system.mem_ctrls.perBankWrBursts::1                 0                       # Per bank write bursts
system.mem_ctrls.perBankWrBursts::2                 0                       # Per bank write bursts
system.mem_ctrls.perBankWrBursts::3                 0                       # Per bank write bursts
system.mem_ctrls.perBankWrBursts::4                 0                       # Per bank write bursts
system.mem_ctrls.perBankWrBursts::5                 0                       # Per bank write bursts
system.mem_ctrls.perBankWrBursts::6                 0                       # Per bank write bursts
system.mem_ctrls.perBankWrBursts::7                 0                       # Per bank write bursts
system.mem_ctrls.perBankWrBursts::8                 0                       # Per bank write bursts
system.mem_ctrls.perBankWrBursts::9                 0                       # Per bank write bursts
system.mem_ctrls.perBankWrBursts::10                0                       # Per bank write bursts
system.mem_ctrls.perBankWrBursts::11                0                       # Per bank write bursts
system.mem_ctrls.perBankWrBursts::12                0                       # Per bank write bursts
system.mem_ctrls.perBankWrBursts::13                0                       # Per bank write bursts
system.mem_ctrls.perBankWrBursts::14                0                       # Per bank write bursts
system.mem_ctrls.perBankWrBursts::15                0                       # Per bank write bursts
system.mem_ctrls.numRdRetry                         0                       # Number of times read queue was full causing retry
system.mem_ctrls.numWrRetry                         0                       # Number of times write queue was full causing retry
system.mem_ctrls.totGap                  267194231000                       # Total gap between requests
system.mem_ctrls.readPktSize::0                     0                       # Read request sizes (log2)
system.mem_ctrls.readPktSize::1                     0                       # Read request sizes (log2)
system.mem_ctrls.readPktSize::2                     0                       # Read request sizes (log2)
system.mem_ctrls.readPktSize::3                     0                       # Read request sizes (log2)
system.mem_ctrls.readPktSize::4                     0                       # Read request sizes (log2)
system.mem_ctrls.readPktSize::5                     0                       # Read request sizes (log2)
system.mem_ctrls.readPktSize::6                103648                       # Read request sizes (log2)
system.mem_ctrls.writePktSize::0                    0                       # Write request sizes (log2)
system.mem_ctrls.writePktSize::1                    0                       # Write request sizes (log2)
system.mem_ctrls.writePktSize::2                    0                       # Write request sizes (log2)
system.mem_ctrls.writePktSize::3                    0                       # Write request sizes (log2)
system.mem_ctrls.writePktSize::4                    0                       # Write request sizes (log2)
system.mem_ctrls.writePktSize::5                    0                       # Write request sizes (log2)
system.mem_ctrls.writePktSize::6                    0                       # Write request sizes (log2)
system.mem_ctrls.rdQLenPdf::0                  101892                       # What read queue length does an incoming req see
system.mem_ctrls.rdQLenPdf::1                    1756                       # What read queue length does an incoming req see
system.mem_ctrls.rdQLenPdf::2                       0                       # What read queue length does an incoming req see
system.mem_ctrls.rdQLenPdf::3                       0                       # What read queue length does an incoming req see
system.mem_ctrls.rdQLenPdf::4                       0                       # What read queue length does an incoming req see
system.mem_ctrls.rdQLenPdf::5                       0                       # What read queue length does an incoming req see
system.mem_ctrls.rdQLenPdf::6                       0                       # What read queue length does an incoming req see
system.mem_ctrls.rdQLenPdf::7                       0                       # What read queue length does an incoming req see
system.mem_ctrls.rdQLenPdf::8                       0                       # What read queue length does an incoming req see
system.mem_ctrls.rdQLenPdf::9                       0                       # What read queue length does an incoming req see
system.mem_ctrls.rdQLenPdf::10                      0                       # What read queue length does an incoming req see
system.mem_ctrls.rdQLenPdf::11                      0                       # What read queue length does an incoming req see
system.mem_ctrls.rdQLenPdf::12                      0                       # What read queue length does an incoming req see
system.mem_ctrls.rdQLenPdf::13                      0                       # What read queue length does an incoming req see
system.mem_ctrls.rdQLenPdf::14                      0                       # What read queue length does an incoming req see
system.mem_ctrls.rdQLenPdf::15                      0                       # What read queue length does an incoming req see
system.mem_ctrls.rdQLenPdf::16                      0                       # What read queue length does an incoming req see
system.mem_ctrls.rdQLenPdf::17                      0                       # What read queue length does an incoming req see
system.mem_ctrls.rdQLenPdf::18                      0                       # What read queue length does an incoming req see
system.mem_ctrls.rdQLenPdf::19                      0                       # What read queue length does an incoming req see
system.mem_ctrls.rdQLenPdf::20                      0                       # What read queue length does an incoming req see
system.mem_ctrls.rdQLenPdf::21                      0                       # What read queue length does an incoming req see
system.mem_ctrls.rdQLenPdf::22                      0                       # What read queue length does an incoming req see
system.mem_ctrls.rdQLenPdf::23                      0                       # What read queue length does an incoming req see
system.mem_ctrls.rdQLenPdf::24                      0                       # What read queue length does an incoming req see
system.mem_ctrls.rdQLenPdf::25                      0                       # What read queue length does an incoming req see
system.mem_ctrls.rdQLenPdf::26                      0                       # What read queue length does an incoming req see
system.mem_ctrls.rdQLenPdf::27                      0                       # What read queue length does an incoming req see
system.mem_ctrls.rdQLenPdf::28                      0                       # What read queue length does an incoming req see
system.mem_ctrls.rdQLenPdf::29                      0                       # What read queue length does an incoming req see
system.mem_ctrls.rdQLenPdf::30                      0                       # What read queue length does an incoming req see
system.mem_ctrls.rdQLenPdf::31                      0                       # What read queue length does an incoming req see
system.mem_ctrls.wrQLenPdf::0                       0                       # What write queue length does an incoming req see
system.mem_ctrls.wrQLenPdf::1                       0                       # What write queue length does an incoming req see
system.mem_ctrls.wrQLenPdf::2                       0                       # What write queue length does an incoming req see
system.mem_ctrls.wrQLenPdf::3                       0                       # What write queue length does an incoming req see
system.mem_ctrls.wrQLenPdf::4                       0                       # What write queue length does an incoming req see
system.mem_ctrls.wrQLenPdf::5                       0                       # What write queue length does an incoming req see
system.mem_ctrls.wrQLenPdf::6                       0                       # What write queue length does an incoming req see
system.mem_ctrls.wrQLenPdf::7                       0                       # What write queue length does an incoming req see
system.mem_ctrls.wrQLenPdf::8                       0                       # What write queue length does an incoming req see
system.mem_ctrls.wrQLenPdf::9                       0                       # What write queue length does an incoming req see
system.mem_ctrls.wrQLenPdf::10                      0                       # What write queue length does an incoming req see
system.mem_ctrls.wrQLenPdf::11                      0                       # What write queue length does an incoming req see
system.mem_ctrls.wrQLenPdf::12                      0                       # What write queue length does an incoming req see
system.mem_ctrls.wrQLenPdf::13                      0                       # What write queue length does an incoming req see
system.mem_ctrls.wrQLenPdf::14                      0                       # What write queue length does an incoming req see
system.mem_ctrls.wrQLenPdf::15                      0                       # What write queue length does an incoming req see
system.mem_ctrls.wrQLenPdf::16                      0                       # What write queue length does an incoming req see
system.mem_ctrls.wrQLenPdf::17                      0                       # What write queue length does an incoming req see
system.mem_ctrls.wrQLenPdf::18                      0                       # What write queue length does an incoming req see
system.mem_ctrls.wrQLenPdf::19                      0                       # What write queue length does an incoming req see
system.mem_ctrls.wrQLenPdf::20                      0                       # What write queue length does an incoming req see
system.mem_ctrls.wrQLenPdf::21                      0                       # What write queue length does an incoming req see
system.mem_ctrls.wrQLenPdf::22                      0                       # What write queue length does an incoming req see
system.mem_ctrls.wrQLenPdf::23                      0                       # What write queue length does an incoming req see
system.mem_ctrls.wrQLenPdf::24                      0                       # What write queue length does an incoming req see
system.mem_ctrls.wrQLenPdf::25                      0                       # What write queue length does an incoming req see
system.mem_ctrls.wrQLenPdf::26                      0                       # What write queue length does an incoming req see
system.mem_ctrls.wrQLenPdf::27                      0                       # What write queue length does an incoming req see
system.mem_ctrls.wrQLenPdf::28                      0                       # What write queue length does an incoming req see
system.mem_ctrls.wrQLenPdf::29                      0                       # What write queue length does an incoming req see
system.mem_ctrls.wrQLenPdf::30                      0                       # What write queue length does an incoming req see
system.mem_ctrls.wrQLenPdf::31                      0                       # What write queue length does an incoming req see
system.mem_ctrls.wrQLenPdf::32                      0                       # What write queue length does an incoming req see
system.mem_ctrls.wrQLenPdf::33                      0                       # What write queue length does an incoming req see
system.mem_ctrls.wrQLenPdf::34                      0                       # What write queue length does an incoming req see
system.mem_ctrls.wrQLenPdf::35                      0                       # What write queue length does an incoming req see
system.mem_ctrls.wrQLenPdf::36                      0                       # What write queue length does an incoming req see
system.mem_ctrls.wrQLenPdf::37                      0                       # What write queue length does an incoming req see
system.mem_ctrls.wrQLenPdf::38                      0                       # What write queue length does an incoming req see
system.mem_ctrls.wrQLenPdf::39                      0                       # What write queue length does an incoming req see
system.mem_ctrls.wrQLenPdf::40                      0                       # What write queue length does an incoming req see
system.mem_ctrls.wrQLenPdf::41                      0                       # What write queue length does an incoming req see
system.mem_ctrls.wrQLenPdf::42                      0                       # What write queue length does an incoming req see
system.mem_ctrls.wrQLenPdf::43                      0                       # What write queue length does an incoming req see
system.mem_ctrls.wrQLenPdf::44                      0                       # What write queue length does an incoming req see
system.mem_ctrls.wrQLenPdf::45                      0                       # What write queue length does an incoming req see
system.mem_ctrls.wrQLenPdf::46                      0                       # What write queue length does an incoming req see
system.mem_ctrls.wrQLenPdf::47                      0                       # What write queue length does an incoming req see
system.mem_ctrls.wrQLenPdf::48                      0                       # What write queue length does an incoming req see
system.mem_ctrls.wrQLenPdf::49                      0                       # What write queue length does an incoming req see
system.mem_ctrls.wrQLenPdf::50                      0                       # What write queue length does an incoming req see
system.mem_ctrls.wrQLenPdf::51                      0                       # What write queue length does an incoming req see
system.mem_ctrls.wrQLenPdf::52                      0                       # What write queue length does an incoming req see
system.mem_ctrls.wrQLenPdf::53                      0                       # What write queue length does an incoming req see
system.mem_ctrls.wrQLenPdf::54                      0                       # What write queue length does an incoming req see
system.mem_ctrls.wrQLenPdf::55                      0                       # What write queue length does an incoming req see
system.mem_ctrls.wrQLenPdf::56                      0                       # What write queue length does an incoming req see
system.mem_ctrls.wrQLenPdf::57                      0                       # What write queue length does an incoming req see
system.mem_ctrls.wrQLenPdf::58                      0                       # What write queue length does an incoming req see
system.mem_ctrls.wrQLenPdf::59                      0                       # What write queue length does an incoming req see
system.mem_ctrls.wrQLenPdf::60                      0                       # What write queue length does an incoming req see
system.mem_ctrls.wrQLenPdf::61                      0                       # What write queue length does an incoming req see
system.mem_ctrls.wrQLenPdf::62                      0                       # What write queue length does an incoming req see
system.mem_ctrls.wrQLenPdf::63                      0                       # What write queue length does an incoming req see
system.mem_ctrls.bytesPerActivate::samples        24907                       # Bytes accessed per row activation
system.mem_ctrls.bytesPerActivate::mean    266.296222                       # Bytes accessed per row activation
system.mem_ctrls.bytesPerActivate::gmean   245.955388                       # Bytes accessed per row activation
system.mem_ctrls.bytesPerActivate::stdev   116.913864                       # Bytes accessed per row activation
system.mem_ctrls.bytesPerActivate::0-127         1614      6.48%      6.48% # Bytes accessed per row activation
system.mem_ctrls.bytesPerActivate::128-255         1014      4.07%     10.55% # Bytes accessed per row activation
system.mem_ctrls.bytesPerActivate::256-383        21476     86.22%     96.78% # Bytes accessed per row activation
system.mem_ctrls.bytesPerActivate::384-511          249      1.00%     97.78% # Bytes accessed per row activation
system.mem_ctrls.bytesPerActivate::512-639           88      0.35%     98.13% # Bytes accessed per row activation
system.mem_ctrls.bytesPerActivate::640-767           19      0.08%     98.21% # Bytes accessed per row activation
system.mem_ctrls.bytesPerActivate::768-895           47      0.19%     98.39% # Bytes accessed per row activation
system.mem_ctrls.bytesPerActivate::896-1023           74      0.30%     98.69% # Bytes accessed per row activation
system.mem_ctrls.bytesPerActivate::1024-1151          326      1.31%    100.00% # Bytes accessed per row activation
system.mem_ctrls.bytesPerActivate::total        24907                       # Bytes accessed per row activation
system.mem_ctrls.totQLat                   1025315747                       # Total ticks spent queuing
system.mem_ctrls.totMemAccLat              2968715747                       # Total ticks spent from burst creation until serviced by the DRAM
system.mem_ctrls.totBusLat                  518240000                       # Total ticks spent in databus transfers
system.mem_ctrls.avgQLat                      9892.29                       # Average queueing delay per DRAM burst
system.mem_ctrls.avgBusLat                    5000.00                       # Average bus latency per DRAM burst
system.mem_ctrls.avgMemAccLat                28642.29                       # Average memory access latency per DRAM burst
system.mem_ctrls.avgRdBW                        24.83                       # Average DRAM read bandwidth in MiByte/s
system.mem_ctrls.avgWrBW                         0.00                       # Average achieved write bandwidth in MiByte/s
system.mem_ctrls.avgRdBWSys                     24.83                       # Average system read bandwidth in MiByte/s
system.mem_ctrls.avgWrBWSys                      0.00                       # Average system write bandwidth in MiByte/s
system.mem_ctrls.peakBW                      12800.00                       # Theoretical peak bandwidth in MiByte/s
system.mem_ctrls.busUtil                         0.19                       # Data bus utilization in percentage
system.mem_ctrls.busUtilRead                     0.19                       # Data bus utilization in percentage for reads
system.mem_ctrls.busUtilWrite                    0.00                       # Data bus utilization in percentage for writes
system.mem_ctrls.avgRdQLen                       1.01                       # Average read queue length when enqueuing
system.mem_ctrls.avgWrQLen                       0.00                       # Average write queue length when enqueuing
system.mem_ctrls.readRowHits                    78737                       # Number of row buffer hits during reads
system.mem_ctrls.writeRowHits                       0                       # Number of row buffer hits during writes
system.mem_ctrls.readRowHitRate                 75.97                       # Row buffer hit rate for reads
system.mem_ctrls.writeRowHitRate                  nan                       # Row buffer hit rate for writes
system.mem_ctrls.avgGap                    2577900.50                       # Average gap between requests
system.mem_ctrls.pageHitRate                    75.97                       # Row buffer hit rate, read and write combined
system.mem_ctrls_0.actEnergy                 95014080                       # Energy for activate commands per rank (pJ)
system.mem_ctrls_0.preEnergy                 51843000                       # Energy for precharge commands per rank (pJ)
system.mem_ctrls_0.readEnergy               401419200                       # Energy for read commands per rank (pJ)
system.mem_ctrls_0.writeEnergy                      0                       # Energy for write commands per rank (pJ)
system.mem_ctrls_0.refreshEnergy          17451744960                       # Energy for refresh commands per rank (pJ)
system.mem_ctrls_0.actBackEnergy          57687677640                       # Energy for active background per rank (pJ)
system.mem_ctrls_0.preBackEnergy         109712703000                       # Energy for precharge background per rank (pJ)
system.mem_ctrls_0.totalEnergy           185400401880                       # Total energy per rank (pJ)
system.mem_ctrls_0.averagePower            693.881399                       # Core power per rank (mW)
system.mem_ctrls_0.memoryStateTime::IDLE 182221005000                       # Time in different power states
system.mem_ctrls_0.memoryStateTime::REF    8922160000                       # Time in different power states
system.mem_ctrls_0.memoryStateTime::PRE_PDN            0                       # Time in different power states
system.mem_ctrls_0.memoryStateTime::ACT   76050891000                       # Time in different power states
system.mem_ctrls_0.memoryStateTime::ACT_PDN            0                       # Time in different power states
system.mem_ctrls_1.actEnergy                 93282840                       # Energy for activate commands per rank (pJ)
system.mem_ctrls_1.preEnergy                 50898375                       # Energy for precharge commands per rank (pJ)
system.mem_ctrls_1.readEnergy               406933800                       # Energy for read commands per rank (pJ)
system.mem_ctrls_1.writeEnergy                      0                       # Energy for write commands per rank (pJ)
system.mem_ctrls_1.refreshEnergy          17451744960                       # Energy for refresh commands per rank (pJ)
system.mem_ctrls_1.actBackEnergy          58827491820                       # Energy for active background per rank (pJ)
system.mem_ctrls_1.preBackEnergy         108712866000                       # Energy for precharge background per rank (pJ)
system.mem_ctrls_1.totalEnergy           185543217795                       # Total energy per rank (pJ)
system.mem_ctrls_1.averagePower            694.415903                       # Core power per rank (mW)
system.mem_ctrls_1.memoryStateTime::IDLE 180551599750                       # Time in different power states
system.mem_ctrls_1.memoryStateTime::REF    8922160000                       # Time in different power states
system.mem_ctrls_1.memoryStateTime::PRE_PDN            0                       # Time in different power states
system.mem_ctrls_1.memoryStateTime::ACT   77719469000                       # Time in different power states
system.mem_ctrls_1.memoryStateTime::ACT_PDN            0                       # Time in different power states
system.cpu_voltage_domain.voltage                   1                       # Voltage in Volts
system.cpu_clk_domain.clock                       500                       # Clock period in ticks
system.cpu0.apic_clk_domain.clock                8000                       # Clock period in ticks
system.cpu0.workload.num_syscalls                 220                       # Number of system calls
system.cpu0.numCycles                       534388584                       # number of cpu cycles simulated
system.cpu0.numWorkItemsStarted                     0                       # number of work items this cpu started
system.cpu0.numWorkItemsCompleted                   0                       # number of work items this cpu completed
system.cpu0.committedInsts                  149242230                       # Number of instructions committed
system.cpu0.committedOps                    391823549                       # Number of ops (including micro ops) committed
system.cpu0.num_int_alu_accesses            371758438                       # Number of integer alu accesses
system.cpu0.num_fp_alu_accesses               9494870                       # Number of float alu accesses
system.cpu0.num_func_calls                   12283488                       # number of times a function call or return occured
system.cpu0.num_conditional_control_insts     31521737                       # number of instructions that are conditional controls
system.cpu0.num_int_insts                   371758438                       # number of integer instructions
system.cpu0.num_fp_insts                      9494870                       # number of float instructions
system.cpu0.num_int_register_reads          787625772                       # number of times the integer registers were read
system.cpu0.num_int_register_writes         362236787                       # number of times the integer registers were written
system.cpu0.num_fp_register_reads            15205168                       # number of times the floating registers were read
system.cpu0.num_fp_register_writes            7569686                       # number of times the floating registers were written
system.cpu0.num_cc_register_reads           311377442                       # number of times the CC registers were read
system.cpu0.num_cc_register_writes          116496609                       # number of times the CC registers were written
system.cpu0.num_mem_refs                     67641454                       # number of memory refs
system.cpu0.num_load_insts                   42379053                       # Number of load instructions
system.cpu0.num_store_insts                  25262401                       # Number of store instructions
system.cpu0.num_idle_cycles                  0.002000                       # Number of idle cycles
system.cpu0.num_busy_cycles              534388583.998000                       # Number of busy cycles
system.cpu0.not_idle_fraction                1.000000                       # Percentage of non-idle cycles
system.cpu0.idle_fraction                    0.000000                       # Percentage of idle cycles
system.cpu0.Branches                         49883398                       # Number of branches fetched
system.cpu0.op_class::No_OpClass              6170704      1.57%      1.57% # Class of executed instruction
system.cpu0.op_class::IntAlu                279784366     71.41%     72.98% # Class of executed instruction
system.cpu0.op_class::IntMult                     697      0.00%     72.98% # Class of executed instruction
system.cpu0.op_class::IntDiv                 30657647      7.82%     80.81% # Class of executed instruction
system.cpu0.op_class::FloatAdd                7568681      1.93%     82.74% # Class of executed instruction
system.cpu0.op_class::FloatCmp                      0      0.00%     82.74% # Class of executed instruction
system.cpu0.op_class::FloatCvt                      0      0.00%     82.74% # Class of executed instruction
system.cpu0.op_class::FloatMult                     0      0.00%     82.74% # Class of executed instruction
system.cpu0.op_class::FloatDiv                      0      0.00%     82.74% # Class of executed instruction
system.cpu0.op_class::FloatSqrt                     0      0.00%     82.74% # Class of executed instruction
system.cpu0.op_class::SimdAdd                       0      0.00%     82.74% # Class of executed instruction
system.cpu0.op_class::SimdAddAcc                    0      0.00%     82.74% # Class of executed instruction
system.cpu0.op_class::SimdAlu                       0      0.00%     82.74% # Class of executed instruction
system.cpu0.op_class::SimdCmp                       0      0.00%     82.74% # Class of executed instruction
system.cpu0.op_class::SimdCvt                       0      0.00%     82.74% # Class of executed instruction
system.cpu0.op_class::SimdMisc                      0      0.00%     82.74% # Class of executed instruction
system.cpu0.op_class::SimdMult                      0      0.00%     82.74% # Class of executed instruction
system.cpu0.op_class::SimdMultAcc                   0      0.00%     82.74% # Class of executed instruction
system.cpu0.op_class::SimdShift                     0      0.00%     82.74% # Class of executed instruction
system.cpu0.op_class::SimdShiftAcc                  0      0.00%     82.74% # Class of executed instruction
system.cpu0.op_class::SimdSqrt                      0      0.00%     82.74% # Class of executed instruction
system.cpu0.op_class::SimdFloatAdd                  0      0.00%     82.74% # Class of executed instruction
system.cpu0.op_class::SimdFloatAlu                  0      0.00%     82.74% # Class of executed instruction
system.cpu0.op_class::SimdFloatCmp                  0      0.00%     82.74% # Class of executed instruction
system.cpu0.op_class::SimdFloatCvt                  0      0.00%     82.74% # Class of executed instruction
system.cpu0.op_class::SimdFloatDiv                  0      0.00%     82.74% # Class of executed instruction
system.cpu0.op_class::SimdFloatMisc                 0      0.00%     82.74% # Class of executed instruction
system.cpu0.op_class::SimdFloatMult                 0      0.00%     82.74% # Class of executed instruction
system.cpu0.op_class::SimdFloatMultAcc              0      0.00%     82.74% # Class of executed instruction
system.cpu0.op_class::SimdFloatSqrt                 0      0.00%     82.74% # Class of executed instruction
system.cpu0.op_class::MemRead                42379053     10.82%     93.55% # Class of executed instruction
system.cpu0.op_class::MemWrite               25262401      6.45%    100.00% # Class of executed instruction
system.cpu0.op_class::IprAccess                     0      0.00%    100.00% # Class of executed instruction
system.cpu0.op_class::InstPrefetch                  0      0.00%    100.00% # Class of executed instruction
system.cpu0.op_class::total                 391823549                       # Class of executed instruction
system.cpu1.apic_clk_domain.clock                8000                       # Clock period in ticks
system.cpu1.numCycles                       534203800                       # number of cpu cycles simulated
system.cpu1.numWorkItemsStarted                     0                       # number of work items this cpu started
system.cpu1.numWorkItemsCompleted                   0                       # number of work items this cpu completed
system.cpu1.committedInsts                   14474674                       # Number of instructions committed
system.cpu1.committedOps                     28649620                       # Number of ops (including micro ops) committed
system.cpu1.num_int_alu_accesses             22475223                       # Number of integer alu accesses
system.cpu1.num_fp_alu_accesses              14710580                       # Number of float alu accesses
system.cpu1.num_func_calls                      99073                       # number of times a function call or return occured
system.cpu1.num_conditional_control_insts      1587156                       # number of instructions that are conditional controls
system.cpu1.num_int_insts                    22475223                       # number of integer instructions
system.cpu1.num_fp_insts                     14710580                       # number of float instructions
system.cpu1.num_int_register_reads           42841806                       # number of times the integer registers were read
system.cpu1.num_int_register_writes          12292553                       # number of times the integer registers were written
system.cpu1.num_fp_register_reads            20674936                       # number of times the floating registers were read
system.cpu1.num_fp_register_writes           12212912                       # number of times the floating registers were written
system.cpu1.num_cc_register_reads             9572506                       # number of times the CC registers were read
system.cpu1.num_cc_register_writes            9547432                       # number of times the CC registers were written
system.cpu1.num_mem_refs                      8765999                       # number of memory refs
system.cpu1.num_load_insts                    6218542                       # Number of load instructions
system.cpu1.num_store_insts                   2547457                       # Number of store instructions
system.cpu1.num_idle_cycles              470815669.299420                       # Number of idle cycles
system.cpu1.num_busy_cycles              63388130.700580                       # Number of busy cycles
system.cpu1.not_idle_fraction                0.118659                       # Percentage of non-idle cycles
system.cpu1.idle_fraction                    0.881341                       # Percentage of idle cycles
system.cpu1.Branches                          1738886                       # Number of branches fetched
system.cpu1.op_class::No_OpClass                    7      0.00%      0.00% # Class of executed instruction
system.cpu1.op_class::IntAlu                 13566986     47.35%     47.35% # Class of executed instruction
system.cpu1.op_class::IntMult                  142173      0.50%     47.85% # Class of executed instruction
system.cpu1.op_class::IntDiv                       49      0.00%     47.85% # Class of executed instruction
system.cpu1.op_class::FloatAdd                6174406     21.55%     69.40% # Class of executed instruction
system.cpu1.op_class::FloatCmp                      0      0.00%     69.40% # Class of executed instruction
system.cpu1.op_class::FloatCvt                      0      0.00%     69.40% # Class of executed instruction
system.cpu1.op_class::FloatMult                     0      0.00%     69.40% # Class of executed instruction
system.cpu1.op_class::FloatDiv                      0      0.00%     69.40% # Class of executed instruction
system.cpu1.op_class::FloatSqrt                     0      0.00%     69.40% # Class of executed instruction
system.cpu1.op_class::SimdAdd                       0      0.00%     69.40% # Class of executed instruction
system.cpu1.op_class::SimdAddAcc                    0      0.00%     69.40% # Class of executed instruction
system.cpu1.op_class::SimdAlu                       0      0.00%     69.40% # Class of executed instruction
system.cpu1.op_class::SimdCmp                       0      0.00%     69.40% # Class of executed instruction
system.cpu1.op_class::SimdCvt                       0      0.00%     69.40% # Class of executed instruction
system.cpu1.op_class::SimdMisc                      0      0.00%     69.40% # Class of executed instruction
system.cpu1.op_class::SimdMult                      0      0.00%     69.40% # Class of executed instruction
system.cpu1.op_class::SimdMultAcc                   0      0.00%     69.40% # Class of executed instruction
system.cpu1.op_class::SimdShift                     0      0.00%     69.40% # Class of executed instruction
system.cpu1.op_class::SimdShiftAcc                  0      0.00%     69.40% # Class of executed instruction
system.cpu1.op_class::SimdSqrt                      0      0.00%     69.40% # Class of executed instruction
system.cpu1.op_class::SimdFloatAdd                  0      0.00%     69.40% # Class of executed instruction
system.cpu1.op_class::SimdFloatAlu                  0      0.00%     69.40% # Class of executed instruction
system.cpu1.op_class::SimdFloatCmp                  0      0.00%     69.40% # Class of executed instruction
system.cpu1.op_class::SimdFloatCvt                  0      0.00%     69.40% # Class of executed instruction
system.cpu1.op_class::SimdFloatDiv                  0      0.00%     69.40% # Class of executed instruction
system.cpu1.op_class::SimdFloatMisc                 0      0.00%     69.40% # Class of executed instruction
system.cpu1.op_class::SimdFloatMult                 0      0.00%     69.40% # Class of executed instruction
system.cpu1.op_class::SimdFloatMultAcc              0      0.00%     69.40% # Class of executed instruction
system.cpu1.op_class::SimdFloatSqrt                 0      0.00%     69.40% # Class of executed instruction
system.cpu1.op_class::MemRead                 6218542     21.71%     91.11% # Class of executed instruction
system.cpu1.op_class::MemWrite                2547457      8.89%    100.00% # Class of executed instruction
system.cpu1.op_class::IprAccess                     0      0.00%    100.00% # Class of executed instruction
system.cpu1.op_class::InstPrefetch                  0      0.00%    100.00% # Class of executed instruction
system.cpu1.op_class::total                  28649620                       # Class of executed instruction
system.cpu2.apic_clk_domain.clock                8000                       # Clock period in ticks
system.cpu2.numCycles                       515669190                       # number of cpu cycles simulated
system.cpu2.numWorkItemsStarted                     0                       # number of work items this cpu started
system.cpu2.numWorkItemsCompleted                   0                       # number of work items this cpu completed
system.cpu2.committedInsts                   16358093                       # Number of instructions committed
system.cpu2.committedOps                     32394952                       # Number of ops (including micro ops) committed
system.cpu2.num_int_alu_accesses             25251710                       # Number of integer alu accesses
system.cpu2.num_fp_alu_accesses              16259065                       # Number of float alu accesses
system.cpu2.num_func_calls                     123773                       # number of times a function call or return occured
system.cpu2.num_conditional_control_insts      1816988                       # number of instructions that are conditional controls
system.cpu2.num_int_insts                    25251710                       # number of integer instructions
system.cpu2.num_fp_insts                     16259065                       # number of float instructions
system.cpu2.num_int_register_reads           47527795                       # number of times the integer registers were read
system.cpu2.num_int_register_writes          14247143                       # number of times the integer registers were written
system.cpu2.num_fp_register_reads            23241698                       # number of times the floating registers were read
system.cpu2.num_fp_register_writes           13977691                       # number of times the floating registers were written
system.cpu2.num_cc_register_reads            10963896                       # number of times the CC registers were read
system.cpu2.num_cc_register_writes           10932579                       # number of times the CC registers were written
system.cpu2.num_mem_refs                      9426006                       # number of memory refs
system.cpu2.num_load_insts                    7082428                       # Number of load instructions
system.cpu2.num_store_insts                   2343578                       # Number of store instructions
system.cpu2.num_idle_cycles              449149430.961512                       # Number of idle cycles
system.cpu2.num_busy_cycles              66519759.038488                       # Number of busy cycles
system.cpu2.not_idle_fraction                0.128997                       # Percentage of non-idle cycles
system.cpu2.idle_fraction                    0.871003                       # Percentage of idle cycles
system.cpu2.Branches                          2008835                       # Number of branches fetched
system.cpu2.op_class::No_OpClass                    8      0.00%      0.00% # Class of executed instruction
system.cpu2.op_class::IntAlu                 15643366     48.29%     48.29% # Class of executed instruction
system.cpu2.op_class::IntMult                  182268      0.56%     48.85% # Class of executed instruction
system.cpu2.op_class::IntDiv                       56      0.00%     48.85% # Class of executed instruction
system.cpu2.op_class::FloatAdd                7143248     22.05%     70.90% # Class of executed instruction
system.cpu2.op_class::FloatCmp                      0      0.00%     70.90% # Class of executed instruction
system.cpu2.op_class::FloatCvt                      0      0.00%     70.90% # Class of executed instruction
system.cpu2.op_class::FloatMult                     0      0.00%     70.90% # Class of executed instruction
system.cpu2.op_class::FloatDiv                      0      0.00%     70.90% # Class of executed instruction
system.cpu2.op_class::FloatSqrt                     0      0.00%     70.90% # Class of executed instruction
system.cpu2.op_class::SimdAdd                       0      0.00%     70.90% # Class of executed instruction
system.cpu2.op_class::SimdAddAcc                    0      0.00%     70.90% # Class of executed instruction
system.cpu2.op_class::SimdAlu                       0      0.00%     70.90% # Class of executed instruction
system.cpu2.op_class::SimdCmp                       0      0.00%     70.90% # Class of executed instruction
system.cpu2.op_class::SimdCvt                       0      0.00%     70.90% # Class of executed instruction
system.cpu2.op_class::SimdMisc                      0      0.00%     70.90% # Class of executed instruction
system.cpu2.op_class::SimdMult                      0      0.00%     70.90% # Class of executed instruction
system.cpu2.op_class::SimdMultAcc                   0      0.00%     70.90% # Class of executed instruction
system.cpu2.op_class::SimdShift                     0      0.00%     70.90% # Class of executed instruction
system.cpu2.op_class::SimdShiftAcc                  0      0.00%     70.90% # Class of executed instruction
system.cpu2.op_class::SimdSqrt                      0      0.00%     70.90% # Class of executed instruction
system.cpu2.op_class::SimdFloatAdd                  0      0.00%     70.90% # Class of executed instruction
system.cpu2.op_class::SimdFloatAlu                  0      0.00%     70.90% # Class of executed instruction
system.cpu2.op_class::SimdFloatCmp                  0      0.00%     70.90% # Class of executed instruction
system.cpu2.op_class::SimdFloatCvt                  0      0.00%     70.90% # Class of executed instruction
system.cpu2.op_class::SimdFloatDiv                  0      0.00%     70.90% # Class of executed instruction
system.cpu2.op_class::SimdFloatMisc                 0      0.00%     70.90% # Class of executed instruction
system.cpu2.op_class::SimdFloatMult                 0      0.00%     70.90% # Class of executed instruction
system.cpu2.op_class::SimdFloatMultAcc              0      0.00%     70.90% # Class of executed instruction
system.cpu2.op_class::SimdFloatSqrt                 0      0.00%     70.90% # Class of executed instruction
system.cpu2.op_class::MemRead                 7082428     21.86%     92.77% # Class of executed instruction
system.cpu2.op_class::MemWrite                2343578      7.23%    100.00% # Class of executed instruction
system.cpu2.op_class::IprAccess                     0      0.00%    100.00% # Class of executed instruction
system.cpu2.op_class::InstPrefetch                  0      0.00%    100.00% # Class of executed instruction
system.cpu2.op_class::total                  32394952                       # Class of executed instruction
system.ruby.clk_domain.clock                      500                       # Clock period in ticks
system.ruby.delayHist::bucket_size                  4                       # delay histogram for all message
system.ruby.delayHist::max_bucket                  39                       # delay histogram for all message
system.ruby.delayHist::samples                4108067                       # delay histogram for all message
system.ruby.delayHist::mean                  0.678681                       # delay histogram for all message
system.ruby.delayHist::stdev                 2.258120                       # delay histogram for all message
system.ruby.delayHist                    |     3761417     91.56%     91.56% |       15596      0.38%     91.94% |      327832      7.98%     99.92% |        1192      0.03%     99.95% |        1181      0.03%     99.98% |         429      0.01%     99.99% |         419      0.01%    100.00% |           1      0.00%    100.00% |           0      0.00%    100.00% |           0      0.00%    100.00% # delay histogram for all message
system.ruby.delayHist::total                  4108067                       # delay histogram for all message
system.ruby.outstanding_req_hist::bucket_size            1                      
system.ruby.outstanding_req_hist::max_bucket            9                      
system.ruby.outstanding_req_hist::samples    318882666                      
system.ruby.outstanding_req_hist::mean       1.000480                      
system.ruby.outstanding_req_hist::gmean      1.000333                      
system.ruby.outstanding_req_hist::stdev      0.021902                      
system.ruby.outstanding_req_hist         |           0      0.00%      0.00% |   318729624     99.95%     99.95% |      153042      0.05%    100.00% |           0      0.00%    100.00% |           0      0.00%    100.00% |           0      0.00%    100.00% |           0      0.00%    100.00% |           0      0.00%    100.00% |           0      0.00%    100.00% |           0      0.00%    100.00%
system.ruby.outstanding_req_hist::total     318882666                      
system.ruby.latency_hist::bucket_size             128                      
system.ruby.latency_hist::max_bucket             1279                      
system.ruby.latency_hist::samples           318882666                      
system.ruby.latency_hist::mean               1.091498                      
system.ruby.latency_hist::gmean              1.009299                      
system.ruby.latency_hist::stdev              3.036005                      
system.ruby.latency_hist                 |   318857749     99.99%     99.99% |       21856      0.01%    100.00% |          87      0.00%    100.00% |         173      0.00%    100.00% |        2308      0.00%    100.00% |         493      0.00%    100.00% |           0      0.00%    100.00% |           0      0.00%    100.00% |           0      0.00%    100.00% |           0      0.00%    100.00%
system.ruby.latency_hist::total             318882666                      
system.ruby.hit_latency_hist::bucket_size          128                      
system.ruby.hit_latency_hist::max_bucket         1279                      
system.ruby.hit_latency_hist::samples       318882666                      
system.ruby.hit_latency_hist::mean           1.091498                      
system.ruby.hit_latency_hist::gmean          1.009299                      
system.ruby.hit_latency_hist::stdev          3.036005                      
system.ruby.hit_latency_hist             |   318857749     99.99%     99.99% |       21856      0.01%    100.00% |          87      0.00%    100.00% |         173      0.00%    100.00% |        2308      0.00%    100.00% |         493      0.00%    100.00% |           0      0.00%    100.00% |           0      0.00%    100.00% |           0      0.00%    100.00% |           0      0.00%    100.00%
system.ruby.hit_latency_hist::total         318882666                      
system.ruby.l0_cntrl0.Dcache.demand_hits     67515362                       # Number of cache demand hits
system.ruby.l0_cntrl0.Dcache.demand_misses       126142                       # Number of cache demand misses
system.ruby.l0_cntrl0.Dcache.demand_accesses     67641504                       # Number of cache demand accesses
system.ruby.l0_cntrl0.Icache.demand_hits    192607486                       # Number of cache demand hits
system.ruby.l0_cntrl0.Icache.demand_misses         2719                       # Number of cache demand misses
system.ruby.l0_cntrl0.Icache.demand_accesses    192610205                       # Number of cache demand accesses
system.ruby.l0_cntrl0.Zcache.demand_hits      9643263                       # Number of cache demand hits
system.ruby.l0_cntrl0.Zcache.demand_misses        94180                       # Number of cache demand misses
system.ruby.l0_cntrl0.Zcache.demand_accesses      9737443                       # Number of cache demand accesses
system.ruby.l0_cntrl1.Dcache.demand_hits      8368341                       # Number of cache demand hits
system.ruby.l0_cntrl1.Dcache.demand_misses       464420                       # Number of cache demand misses
system.ruby.l0_cntrl1.Dcache.demand_accesses      8832761                       # Number of cache demand accesses
system.ruby.l0_cntrl1.Icache.demand_hits     19018116                       # Number of cache demand hits
system.ruby.l0_cntrl1.Icache.demand_misses          426                       # Number of cache demand misses
system.ruby.l0_cntrl1.Icache.demand_accesses     19018542                       # Number of cache demand accesses
system.ruby.l0_cntrl1.Zcache.demand_hits      1432245                       # Number of cache demand hits
system.ruby.l0_cntrl1.Zcache.demand_misses        54049                       # Number of cache demand misses
system.ruby.l0_cntrl1.Zcache.demand_accesses      1486294                       # Number of cache demand accesses
system.ruby.l0_cntrl2.Dcache.demand_hits      9025725                       # Number of cache demand hits
system.ruby.l0_cntrl2.Dcache.demand_misses       486511                       # Number of cache demand misses
system.ruby.l0_cntrl2.Dcache.demand_accesses      9512236                       # Number of cache demand accesses
system.ruby.l0_cntrl2.Icache.demand_hits     21266991                       # Number of cache demand hits
system.ruby.l0_cntrl2.Icache.demand_misses          427                       # Number of cache demand misses
system.ruby.l0_cntrl2.Icache.demand_accesses     21267418                       # Number of cache demand accesses
system.ruby.l0_cntrl2.Zcache.demand_hits      2498505                       # Number of cache demand hits
system.ruby.l0_cntrl2.Zcache.demand_misses       104762                       # Number of cache demand misses
system.ruby.l0_cntrl2.Zcache.demand_accesses      2603267                       # Number of cache demand accesses
system.ruby.l1_cntrl0.cache.demand_hits          3512                       # Number of cache demand hits
system.ruby.l1_cntrl0.cache.demand_misses       125349                       # Number of cache demand misses
system.ruby.l1_cntrl0.cache.demand_accesses       128861                       # Number of cache demand accesses
system.ruby.l1_cntrl0.zcache.demand_hits           11                       # Number of cache demand hits
system.ruby.l1_cntrl0.zcache.demand_misses         1285                       # Number of cache demand misses
system.ruby.l1_cntrl0.zcache.demand_accesses         1296                       # Number of cache demand accesses
system.ruby.l1_cntrl1.cache.demand_hits        190723                       # Number of cache demand hits
system.ruby.l1_cntrl1.cache.demand_misses       274123                       # Number of cache demand misses
system.ruby.l1_cntrl1.cache.demand_accesses       464846                       # Number of cache demand accesses
system.ruby.l1_cntrl1.zcache.demand_hits        48984                       # Number of cache demand hits
system.ruby.l1_cntrl1.zcache.demand_misses         3927                       # Number of cache demand misses
system.ruby.l1_cntrl1.zcache.demand_accesses        52911                       # Number of cache demand accesses
system.ruby.l1_cntrl2.cache.demand_hits        241190                       # Number of cache demand hits
system.ruby.l1_cntrl2.cache.demand_misses       245748                       # Number of cache demand misses
system.ruby.l1_cntrl2.cache.demand_accesses       486938                       # Number of cache demand accesses
system.ruby.l1_cntrl2.zcache.demand_hits        99577                       # Number of cache demand hits
system.ruby.l1_cntrl2.zcache.demand_misses         4211                       # Number of cache demand misses
system.ruby.l1_cntrl2.zcache.demand_accesses       103788                       # Number of cache demand accesses
system.ruby.l2_cntrl0.L2cache.demand_hits       480884                       # Number of cache demand hits
system.ruby.l2_cntrl0.L2cache.demand_misses       164336                       # Number of cache demand misses
system.ruby.l2_cntrl0.L2cache.demand_accesses       645220                       # Number of cache demand accesses
system.ruby.l2_cntrl0.ZL2cache.demand_hits          733                       # Number of cache demand hits
system.ruby.l2_cntrl0.ZL2cache.demand_misses         2145                       # Number of cache demand misses
system.ruby.l2_cntrl0.ZL2cache.demand_accesses         2878                       # Number of cache demand accesses
system.ruby.memctrl_clk_domain.clock             1500                       # Clock period in ticks
system.ruby.network.routers0.percent_links_utilized            0                      
system.ruby.network.routers1.percent_links_utilized            0                      
system.ruby.network.routers2.percent_links_utilized            0                      
system.ruby.network.routers3.percent_links_utilized     0.125144                      
system.ruby.network.routers3.msg_count.Control::0       125349                      
system.ruby.network.routers3.msg_count.Request_Control::2         9199                      
system.ruby.network.routers3.msg_count.Response_Data::1       135782                      
system.ruby.network.routers3.msg_count.Response_Control::1       123290                      
system.ruby.network.routers3.msg_count.Response_Control::2       125342                      
system.ruby.network.routers3.msg_count.Writeback_Data::0       118819                      
system.ruby.network.routers3.msg_count.Writeback_Control::0          438                      
system.ruby.network.routers3.msg_bytes.Control::0      1002792                      
system.ruby.network.routers3.msg_bytes.Request_Control::2        73592                      
system.ruby.network.routers3.msg_bytes.Response_Data::1      9776304                      
system.ruby.network.routers3.msg_bytes.Response_Control::1       986320                      
system.ruby.network.routers3.msg_bytes.Response_Control::2      1002736                      
system.ruby.network.routers3.msg_bytes.Writeback_Data::0      8554968                      
system.ruby.network.routers3.msg_bytes.Writeback_Control::0         3504                      
system.ruby.network.routers4.percent_links_utilized     0.202276                      
system.ruby.network.routers4.msg_count.Control::0       274123                      
system.ruby.network.routers4.msg_count.Request_Control::2        57165                      
system.ruby.network.routers4.msg_count.Response_Data::1       300816                      
system.ruby.network.routers4.msg_count.Response_Control::1       242702                      
system.ruby.network.routers4.msg_count.Response_Control::2       212540                      
system.ruby.network.routers4.msg_count.Writeback_Data::0        85059                      
system.ruby.network.routers4.msg_count.Writeback_Control::0        64358                      
system.ruby.network.routers4.msg_bytes.Control::0      2192984                      
system.ruby.network.routers4.msg_bytes.Request_Control::2       457320                      
system.ruby.network.routers4.msg_bytes.Response_Data::1     21658752                      
system.ruby.network.routers4.msg_bytes.Response_Control::1      1941616                      
system.ruby.network.routers4.msg_bytes.Response_Control::2      1700320                      
system.ruby.network.routers4.msg_bytes.Writeback_Data::0      6124248                      
system.ruby.network.routers4.msg_bytes.Writeback_Control::0       514864                      
system.ruby.network.routers5.percent_links_utilized     0.170146                      
system.ruby.network.routers5.msg_count.Control::0       245748                      
system.ruby.network.routers5.msg_count.Request_Control::2        57368                      
system.ruby.network.routers5.msg_count.Response_Data::1       270613                      
system.ruby.network.routers5.msg_count.Response_Control::1       182321                      
system.ruby.network.routers5.msg_count.Response_Control::2       159311                      
system.ruby.network.routers5.msg_count.Writeback_Data::0        57814                      
system.ruby.network.routers5.msg_count.Writeback_Control::0        36374                      
system.ruby.network.routers5.msg_bytes.Control::0      1965984                      
system.ruby.network.routers5.msg_bytes.Request_Control::2       458944                      
system.ruby.network.routers5.msg_bytes.Response_Data::1     19484136                      
system.ruby.network.routers5.msg_bytes.Response_Control::1      1458568                      
system.ruby.network.routers5.msg_bytes.Response_Control::2      1274488                      
system.ruby.network.routers5.msg_bytes.Writeback_Data::0      4162608                      
system.ruby.network.routers5.msg_bytes.Writeback_Control::0       290992                      
system.ruby.network.routers6.percent_links_utilized     0.488882                      
system.ruby.network.routers6.msg_count.Control::0       748868                      
system.ruby.network.routers6.msg_count.Request_Control::2       120033                      
system.ruby.network.routers6.msg_count.Response_Data::1       689491                      
system.ruby.network.routers6.msg_count.Response_Control::1       422209                      
system.ruby.network.routers6.msg_count.Response_Control::2       497193                      
system.ruby.network.routers6.msg_count.Writeback_Data::0       261692                      
system.ruby.network.routers6.msg_count.Writeback_Control::0       101170                      
system.ruby.network.routers6.msg_bytes.Control::0      5990944                      
system.ruby.network.routers6.msg_bytes.Request_Control::2       960264                      
system.ruby.network.routers6.msg_bytes.Response_Data::1     49643352                      
system.ruby.network.routers6.msg_bytes.Response_Control::1      3377672                      
system.ruby.network.routers6.msg_bytes.Response_Control::2      3977544                      
system.ruby.network.routers6.msg_bytes.Writeback_Data::0     18841824                      
system.ruby.network.routers6.msg_bytes.Writeback_Control::0       809360                      
system.ruby.network.routers7.percent_links_utilized     0.048489                      
system.ruby.network.routers7.msg_count.Control::0       103648                      
system.ruby.network.routers7.msg_count.Response_Data::1       103648                      
system.ruby.network.routers7.msg_bytes.Control::0       829184                      
system.ruby.network.routers7.msg_bytes.Response_Data::1      7462656                      
system.ruby.network.routers8.percent_links_utilized     0.129389                      
system.ruby.network.routers8.msg_count.Control::0       748868                      
system.ruby.network.routers8.msg_count.Request_Control::2       123732                      
system.ruby.network.routers8.msg_count.Response_Data::1       750179                      
system.ruby.network.routers8.msg_count.Response_Control::1       485261                      
system.ruby.network.routers8.msg_count.Response_Control::2       497193                      
system.ruby.network.routers8.msg_count.Writeback_Data::0       261692                      
system.ruby.network.routers8.msg_count.Writeback_Control::0       101170                      
system.ruby.network.routers8.msg_bytes.Control::0      5990944                      
system.ruby.network.routers8.msg_bytes.Request_Control::2       989856                      
system.ruby.network.routers8.msg_bytes.Response_Data::1     54012888                      
system.ruby.network.routers8.msg_bytes.Response_Control::1      3882088                      
system.ruby.network.routers8.msg_bytes.Response_Control::2      3977544                      
system.ruby.network.routers8.msg_bytes.Writeback_Data::0     18841824                      
system.ruby.network.routers8.msg_bytes.Writeback_Control::0       809360                      
system.ruby.network.msg_count.Control         2246604                      
system.ruby.network.msg_count.Request_Control       367497                      
system.ruby.network.msg_count.Response_Data      2250529                      
system.ruby.network.msg_count.Response_Control      2947362                      
system.ruby.network.msg_count.Writeback_Data       785076                      
system.ruby.network.msg_count.Writeback_Control       303510                      
system.ruby.network.msg_byte.Control         17972832                      
system.ruby.network.msg_byte.Request_Control      2939976                      
system.ruby.network.msg_byte.Response_Data    162038088                      
system.ruby.network.msg_byte.Response_Control     23578896                      
system.ruby.network.msg_byte.Writeback_Data     56525472                      
system.ruby.network.msg_byte.Writeback_Control      2428080                      
system.ruby.network.routers0.throttle0.link_utilization            0                      
system.ruby.network.routers0.throttle1.link_utilization            0                      
system.ruby.network.routers1.throttle0.link_utilization            0                      
system.ruby.network.routers1.throttle1.link_utilization            0                      
system.ruby.network.routers2.throttle0.link_utilization            0                      
system.ruby.network.routers2.throttle1.link_utilization            0                      
system.ruby.network.routers3.throttle0.link_utilization     0.117554                      
system.ruby.network.routers3.throttle0.msg_count.Request_Control::2         9199                      
system.ruby.network.routers3.throttle0.msg_count.Response_Data::1       125318                      
system.ruby.network.routers3.throttle0.msg_count.Response_Control::1       119326                      
system.ruby.network.routers3.throttle0.msg_bytes.Request_Control::2        73592                      
system.ruby.network.routers3.throttle0.msg_bytes.Response_Data::1      9022896                      
system.ruby.network.routers3.throttle0.msg_bytes.Response_Control::1       954608                      
system.ruby.network.routers3.throttle1.link_utilization     0.132735                      
system.ruby.network.routers3.throttle1.msg_count.Control::0       125349                      
system.ruby.network.routers3.throttle1.msg_count.Response_Data::1        10464                      
system.ruby.network.routers3.throttle1.msg_count.Response_Control::1         3964                      
system.ruby.network.routers3.throttle1.msg_count.Response_Control::2       125342                      
system.ruby.network.routers3.throttle1.msg_count.Writeback_Data::0       118819                      
system.ruby.network.routers3.throttle1.msg_count.Writeback_Control::0          438                      
system.ruby.network.routers3.throttle1.msg_bytes.Control::0      1002792                      
system.ruby.network.routers3.throttle1.msg_bytes.Response_Data::1       753408                      
system.ruby.network.routers3.throttle1.msg_bytes.Response_Control::1        31712                      
system.ruby.network.routers3.throttle1.msg_bytes.Response_Control::2      1002736                      
system.ruby.network.routers3.throttle1.msg_bytes.Writeback_Data::0      8554968                      
system.ruby.network.routers3.throttle1.msg_bytes.Writeback_Control::0         3504                      
system.ruby.network.routers4.throttle0.link_utilization     0.230521                      
system.ruby.network.routers4.throttle0.msg_count.Request_Control::2        57165                      
system.ruby.network.routers4.throttle0.msg_count.Response_Data::1       243605                      
system.ruby.network.routers4.throttle0.msg_count.Response_Control::1       214148                      
system.ruby.network.routers4.throttle0.msg_bytes.Request_Control::2       457320                      
system.ruby.network.routers4.throttle0.msg_bytes.Response_Data::1     17539560                      
system.ruby.network.routers4.throttle0.msg_bytes.Response_Control::1      1713184                      
system.ruby.network.routers4.throttle1.link_utilization     0.174031                      
system.ruby.network.routers4.throttle1.msg_count.Control::0       274123                      
system.ruby.network.routers4.throttle1.msg_count.Response_Data::1        57211                      
system.ruby.network.routers4.throttle1.msg_count.Response_Control::1        28554                      
system.ruby.network.routers4.throttle1.msg_count.Response_Control::2       212540                      
system.ruby.network.routers4.throttle1.msg_count.Writeback_Data::0        85059                      
system.ruby.network.routers4.throttle1.msg_count.Writeback_Control::0        64358                      
system.ruby.network.routers4.throttle1.msg_bytes.Control::0      2192984                      
system.ruby.network.routers4.throttle1.msg_bytes.Response_Data::1      4119192                      
system.ruby.network.routers4.throttle1.msg_bytes.Response_Control::1       228432                      
system.ruby.network.routers4.throttle1.msg_bytes.Response_Control::2      1700320                      
system.ruby.network.routers4.throttle1.msg_bytes.Writeback_Data::0      6124248                      
system.ruby.network.routers4.throttle1.msg_bytes.Writeback_Control::0       514864                      
system.ruby.network.routers5.throttle0.link_utilization     0.202260                      
system.ruby.network.routers5.throttle0.msg_count.Request_Control::2        57368                      
system.ruby.network.routers5.throttle0.msg_count.Response_Data::1       216950                      
system.ruby.network.routers5.throttle0.msg_count.Response_Control::1       151787                      
system.ruby.network.routers5.throttle0.msg_bytes.Request_Control::2       458944                      
system.ruby.network.routers5.throttle0.msg_bytes.Response_Data::1     15620400                      
system.ruby.network.routers5.throttle0.msg_bytes.Response_Control::1      1214296                      
system.ruby.network.routers5.throttle1.link_utilization     0.138033                      
system.ruby.network.routers5.throttle1.msg_count.Control::0       245748                      
system.ruby.network.routers5.throttle1.msg_count.Response_Data::1        53663                      
system.ruby.network.routers5.throttle1.msg_count.Response_Control::1        30534                      
system.ruby.network.routers5.throttle1.msg_count.Response_Control::2       159311                      
system.ruby.network.routers5.throttle1.msg_count.Writeback_Data::0        57814                      
system.ruby.network.routers5.throttle1.msg_count.Writeback_Control::0        36374                      
system.ruby.network.routers5.throttle1.msg_bytes.Control::0      1965984                      
system.ruby.network.routers5.throttle1.msg_bytes.Response_Data::1      3863736                      
system.ruby.network.routers5.throttle1.msg_bytes.Response_Control::1       244272                      
system.ruby.network.routers5.throttle1.msg_bytes.Response_Control::2      1274488                      
system.ruby.network.routers5.throttle1.msg_bytes.Writeback_Data::0      4162608                      
system.ruby.network.routers5.throttle1.msg_bytes.Writeback_Control::0       290992                      
system.ruby.network.routers6.throttle0.link_utilization     0.475082                      
system.ruby.network.routers6.throttle0.msg_count.Control::0       645220                      
system.ruby.network.routers6.throttle0.msg_count.Response_Data::1       164306                      
system.ruby.network.routers6.throttle0.msg_count.Response_Control::2       497193                      
system.ruby.network.routers6.throttle0.msg_count.Writeback_Data::0       261692                      
system.ruby.network.routers6.throttle0.msg_count.Writeback_Control::0       101170                      
system.ruby.network.routers6.throttle0.msg_bytes.Control::0      5161760                      
system.ruby.network.routers6.throttle0.msg_bytes.Response_Data::1     11830032                      
system.ruby.network.routers6.throttle0.msg_bytes.Response_Control::2      3977544                      
system.ruby.network.routers6.throttle0.msg_bytes.Writeback_Data::0     18841824                      
system.ruby.network.routers6.throttle0.msg_bytes.Writeback_Control::0       809360                      
system.ruby.network.routers6.throttle1.link_utilization     0.502682                      
system.ruby.network.routers6.throttle1.msg_count.Control::0       103648                      
system.ruby.network.routers6.throttle1.msg_count.Request_Control::2       120033                      
system.ruby.network.routers6.throttle1.msg_count.Response_Data::1       525185                      
system.ruby.network.routers6.throttle1.msg_count.Response_Control::1       422209                      
system.ruby.network.routers6.throttle1.msg_bytes.Control::0       829184                      
system.ruby.network.routers6.throttle1.msg_bytes.Request_Control::2       960264                      
system.ruby.network.routers6.throttle1.msg_bytes.Response_Data::1     37813320                      
system.ruby.network.routers6.throttle1.msg_bytes.Response_Control::1      3377672                      
system.ruby.network.routers7.throttle0.link_utilization     0.009698                      
system.ruby.network.routers7.throttle0.msg_count.Control::0       103648                      
system.ruby.network.routers7.throttle0.msg_bytes.Control::0       829184                      
system.ruby.network.routers7.throttle1.link_utilization     0.087280                      
system.ruby.network.routers7.throttle1.msg_count.Response_Data::1       103648                      
system.ruby.network.routers7.throttle1.msg_bytes.Response_Data::1      7462656                      
system.ruby.network.routers8.throttle0.link_utilization            0                      
system.ruby.network.routers8.throttle1.link_utilization            0                      
system.ruby.network.routers8.throttle2.link_utilization            0                      
system.ruby.network.routers8.throttle3.link_utilization     0.117554                      
system.ruby.network.routers8.throttle3.msg_count.Request_Control::2         9199                      
system.ruby.network.routers8.throttle3.msg_count.Response_Data::1       125318                      
system.ruby.network.routers8.throttle3.msg_count.Response_Control::1       119326                      
system.ruby.network.routers8.throttle3.msg_bytes.Request_Control::2        73592                      
system.ruby.network.routers8.throttle3.msg_bytes.Response_Data::1      9022896                      
system.ruby.network.routers8.throttle3.msg_bytes.Response_Control::1       954608                      
system.ruby.network.routers8.throttle4.link_utilization     0.230521                      
system.ruby.network.routers8.throttle4.msg_count.Request_Control::2        57165                      
system.ruby.network.routers8.throttle4.msg_count.Response_Data::1       243605                      
system.ruby.network.routers8.throttle4.msg_count.Response_Control::1       214148                      
system.ruby.network.routers8.throttle4.msg_bytes.Request_Control::2       457320                      
system.ruby.network.routers8.throttle4.msg_bytes.Response_Data::1     17539560                      
system.ruby.network.routers8.throttle4.msg_bytes.Response_Control::1      1713184                      
system.ruby.network.routers8.throttle5.link_utilization     0.202260                      
system.ruby.network.routers8.throttle5.msg_count.Request_Control::2        57368                      
system.ruby.network.routers8.throttle5.msg_count.Response_Data::1       216950                      
system.ruby.network.routers8.throttle5.msg_count.Response_Control::1       151787                      
system.ruby.network.routers8.throttle5.msg_bytes.Request_Control::2       458944                      
system.ruby.network.routers8.throttle5.msg_bytes.Response_Data::1     15620400                      
system.ruby.network.routers8.throttle5.msg_bytes.Response_Control::1      1214296                      
system.ruby.network.routers8.throttle6.link_utilization     0.475082                      
system.ruby.network.routers8.throttle6.msg_count.Control::0       645220                      
system.ruby.network.routers8.throttle6.msg_count.Response_Data::1       164306                      
system.ruby.network.routers8.throttle6.msg_count.Response_Control::2       497193                      
system.ruby.network.routers8.throttle6.msg_count.Writeback_Data::0       261692                      
system.ruby.network.routers8.throttle6.msg_count.Writeback_Control::0       101170                      
system.ruby.network.routers8.throttle6.msg_bytes.Control::0      5161760                      
system.ruby.network.routers8.throttle6.msg_bytes.Response_Data::1     11830032                      
system.ruby.network.routers8.throttle6.msg_bytes.Response_Control::2      3977544                      
system.ruby.network.routers8.throttle6.msg_bytes.Writeback_Data::0     18841824                      
[...]
system.ruby.L0Cache_Controller.IM.Data_Exclusive |      123889     98.07%     98.07% |         831      0.66%     98.72% |        1613      1.28%    100.00%
system.ruby.L0Cache_Controller.IM.Data_Exclusive::total       126333                      
system.ruby.L0Cache_Controller.SM.Data_Exclusive |          31      0.05%      0.05% |       30516     51.42%     51.48% |       28796     48.52%    100.00%
system.ruby.L0Cache_Controller.SM.Data_Exclusive::total        59343                      
system.ruby.L1Cache_Controller.Load      |        4941      0.55%      0.55% |      433499     48.44%     48.99% |      456529     51.01%    100.00%
system.ruby.L1Cache_Controller.Load::total       894969                      
system.ruby.L1Cache_Controller.Store     |      123920     66.74%     66.74% |       31347     16.88%     83.62% |       30409     16.38%    100.00%
system.ruby.L1Cache_Controller.Store::total       185676                      
system.ruby.L1Cache_Controller.WriteBack |      125086     14.66%     14.66% |      369275     43.29%     57.95% |      358698     42.05%    100.00%
system.ruby.L1Cache_Controller.WriteBack::total       853059                      
system.ruby.L1Cache_Controller.L0_DataAck |        1907     28.34%     28.34% |        4126     61.33%     89.67% |         695     10.33%    100.00%
system.ruby.L1Cache_Controller.L0_DataAck::total         6728                      
system.ruby.L1Cache_Controller.Inv       |        3964      6.29%      6.29% |       28554     45.29%     51.57% |       30534     48.43%    100.00%
system.ruby.L1Cache_Controller.Inv::total        63052                      
system.ruby.L1Cache_Controller.L0_Invalidate_Own |        4654      1.52%      1.52% |      117454     38.47%     40.00% |      183194     60.00%    100.00%
system.ruby.L1Cache_Controller.L0_Invalidate_Own::total       305302                      
system.ruby.L1Cache_Controller.L0_Invalidate_Else |        1510      7.31%      7.31% |        7690     37.24%     44.56% |       11448     55.44%    100.00%
system.ruby.L1Cache_Controller.L0_Invalidate_Else::total        20648                      
system.ruby.L1Cache_Controller.L1_Replacement |      119732     22.32%     22.32% |      207442     38.66%     60.98% |      209340     39.02%    100.00%
system.ruby.L1Cache_Controller.L1_Replacement::total       536514                      
system.ruby.L1Cache_Controller.Fwd_GETX  |           6     27.27%     27.27% |          11     50.00%     77.27% |           5     22.73%    100.00%
system.ruby.L1Cache_Controller.Fwd_GETX::total           22                      
system.ruby.L1Cache_Controller.Fwd_GETS  |        5229      8.62%      8.62% |       28632     47.18%     55.79% |       26829     44.21%    100.00%
system.ruby.L1Cache_Controller.Fwd_GETS::total        60690                      
system.ruby.L1Cache_Controller.Data      |           0      0.00%      0.00% |           3     50.00%     50.00% |           3     50.00%    100.00%
system.ruby.L1Cache_Controller.Data::total            6                      
system.ruby.L1Cache_Controller.Data_Exclusive |        2451      0.97%      0.97% |      153699     61.00%     61.97% |       95816     38.03%    100.00%
system.ruby.L1Cache_Controller.Data_Exclusive::total       251966                      
system.ruby.L1Cache_Controller.DataS_fromL1 |          32      0.05%      0.05% |       27500     45.34%     45.39% |       33126     54.61%    100.00%
system.ruby.L1Cache_Controller.DataS_fromL1::total        60658                      
system.ruby.L1Cache_Controller.Data_all_Acks |      122835     44.95%     44.95% |       62403     22.84%     67.79% |       88005     32.21%    100.00%
system.ruby.L1Cache_Controller.Data_all_Acks::total       273243                      
system.ruby.L1Cache_Controller.L0_Ack    |        1175      0.75%      0.75% |       58446     37.41%     38.16% |       96626     61.84%    100.00%
system.ruby.L1Cache_Controller.L0_Ack::total       156247                      
system.ruby.L1Cache_Controller.Ack       |          38      0.06%      0.06% |       34210     54.26%     54.32% |       28798     45.68%    100.00%
system.ruby.L1Cache_Controller.Ack::total        63046                      
system.ruby.L1Cache_Controller.Ack_all   |          31      0.05%      0.05% |       30521     51.42%     51.48% |       28801     48.52%    100.00%
system.ruby.L1Cache_Controller.Ack_all::total        59353                      
system.ruby.L1Cache_Controller.WB_Ack    |      119257     32.87%     32.87% |      149417     41.18%     74.04% |       94188     25.96%    100.00%
system.ruby.L1Cache_Controller.WB_Ack::total       362862                      
system.ruby.L1Cache_Controller.NP.Load   |        2484      0.54%      0.54% |      242782     52.70%     53.24% |      215379     46.76%    100.00%
system.ruby.L1Cache_Controller.NP.Load::total       460645                      
system.ruby.L1Cache_Controller.NP.Store  |      122828     98.09%     98.09% |         821      0.66%     98.75% |        1571      1.25%    100.00%
system.ruby.L1Cache_Controller.NP.Store::total       125220                      
system.ruby.L1Cache_Controller.NP.Inv    |         475      1.63%      1.63% |           6      0.02%      1.65% |       28591     98.35%    100.00%
system.ruby.L1Cache_Controller.NP.Inv::total        29072                      
system.ruby.L1Cache_Controller.I.Load    |           6    100.00%    100.00% |           0      0.00%    100.00% |           0      0.00%    100.00%
system.ruby.L1Cache_Controller.I.Load::total            6                      
system.ruby.L1Cache_Controller.I.Store   |           0      0.00%      0.00% |           2    100.00%    100.00% |           0      0.00%    100.00%
system.ruby.L1Cache_Controller.I.Store::total            2                      
system.ruby.L1Cache_Controller.I.L1_Replacement |           0      0.00%      0.00% |           7     77.78%     77.78% |           2     22.22%    100.00%
system.ruby.L1Cache_Controller.I.L1_Replacement::total            9                      
system.ruby.L1Cache_Controller.S.Load    |           7      0.25%      0.25% |        1416     50.90%     51.15% |        1359     48.85%    100.00%
system.ruby.L1Cache_Controller.S.Load::total         2782                      
system.ruby.L1Cache_Controller.S.Store   |          31      0.05%      0.05% |       30517     51.42%     51.48% |       28796     48.52%    100.00%
system.ruby.L1Cache_Controller.S.Store::total        59344                      
system.ruby.L1Cache_Controller.S.L0_Invalidate_Own |           0      0.00%      0.00% |       57999     39.04%     39.04% |       90583     60.96%    100.00%
system.ruby.L1Cache_Controller.S.L0_Invalidate_Own::total       148582                      
system.ruby.L1Cache_Controller.S.L0_Invalidate_Else |          14     43.75%     43.75% |           3      9.38%     53.12% |          15     46.88%    100.00%
system.ruby.L1Cache_Controller.S.L0_Invalidate_Else::total           32                      
system.ruby.L1Cache_Controller.SS.Load   |          24      6.22%      6.22% |          31      8.03%     14.25% |         331     85.75%    100.00%
system.ruby.L1Cache_Controller.SS.Load::total          386                      
system.ruby.L1Cache_Controller.SS.Store  |           0      0.00%      0.00% |           1     33.33%     33.33% |           2     66.67%    100.00%
system.ruby.L1Cache_Controller.SS.Store::total            3                      
system.ruby.L1Cache_Controller.SS.Inv    |        3489     10.27%     10.27% |       28548     84.01%     94.28% |        1943      5.72%    100.00%
system.ruby.L1Cache_Controller.SS.Inv::total        33980                      
system.ruby.L1Cache_Controller.SS.L1_Replacement |         475      0.27%      0.27% |       58018     33.41%     33.69% |      115150     66.31%    100.00%
system.ruby.L1Cache_Controller.SS.L1_Replacement::total       173643                      
system.ruby.L1Cache_Controller.E.WriteBack |         784      0.32%      0.32% |      152954     62.81%     63.13% |       89797     36.87%    100.00%
system.ruby.L1Cache_Controller.E.WriteBack::total       243535                      
system.ruby.L1Cache_Controller.E.L0_Invalidate_Own |        1200     54.08%     54.08% |         455     20.50%     74.58% |         564     25.42%    100.00%
system.ruby.L1Cache_Controller.E.L0_Invalidate_Own::total         2219                      
system.ruby.L1Cache_Controller.E.L0_Invalidate_Else |          17      0.31%      0.31% |          41      0.74%      1.05% |        5450     98.95%    100.00%
system.ruby.L1Cache_Controller.E.L0_Invalidate_Else::total         5508                      
system.ruby.L1Cache_Controller.EE.L1_Replacement |        1094     56.74%     56.74% |         372     19.29%     76.04% |         462     23.96%    100.00%
system.ruby.L1Cache_Controller.EE.L1_Replacement::total         1928                      
system.ruby.L1Cache_Controller.EE.Fwd_GETS |          14      0.25%      0.25% |          39      0.71%      0.96% |        5448     99.04%    100.00%
system.ruby.L1Cache_Controller.EE.Fwd_GETS::total         5501                      
system.ruby.L1Cache_Controller.M.WriteBack |      124302     20.39%     20.39% |      216289     35.49%     55.88% |      268901     44.12%    100.00%
system.ruby.L1Cache_Controller.M.WriteBack::total       609492                      
system.ruby.L1Cache_Controller.M.L0_Invalidate_Own |        1127     60.92%     60.92% |         273     14.76%     75.68% |         450     24.32%    100.00%
system.ruby.L1Cache_Controller.M.L0_Invalidate_Own::total         1850                      
system.ruby.L1Cache_Controller.M.L0_Invalidate_Else |         724     15.13%     15.13% |        3801     79.45%     94.59% |         259      5.41%    100.00%
system.ruby.L1Cache_Controller.M.L0_Invalidate_Else::total         4784                      
system.ruby.L1Cache_Controller.MM.Load   |        2420      0.56%      0.56% |      189270     43.90%     44.46% |      239460     55.54%    100.00%
system.ruby.L1Cache_Controller.MM.Load::total       431150                      
system.ruby.L1Cache_Controller.MM.Store  |        1061     95.84%     95.84% |           6      0.54%     96.39% |          40      3.61%    100.00%
system.ruby.L1Cache_Controller.MM.Store::total         1107                      
system.ruby.L1Cache_Controller.MM.L1_Replacement |      118163     32.74%     32.74% |      149045     41.29%     74.03% |       93726     25.97%    100.00%
system.ruby.L1Cache_Controller.MM.L1_Replacement::total       360934                      
system.ruby.L1Cache_Controller.MM.Fwd_GETX |           6     27.27%     27.27% |          11     50.00%     77.27% |           5     22.73%    100.00%
system.ruby.L1Cache_Controller.MM.Fwd_GETX::total           22                      
system.ruby.L1Cache_Controller.MM.Fwd_GETS |        5215      9.46%      9.46% |       28559     51.78%     61.23% |       21381     38.77%    100.00%
system.ruby.L1Cache_Controller.MM.Fwd_GETS::total        55155                      
system.ruby.L1Cache_Controller.IS.Data_Exclusive |        2451      0.97%      0.97% |      153699     61.00%     61.97% |       95816     38.03%    100.00%
system.ruby.L1Cache_Controller.IS.Data_Exclusive::total       251966                      
system.ruby.L1Cache_Controller.IS.DataS_fromL1 |          32      0.05%      0.05% |       27500     45.34%     45.39% |       33126     54.61%    100.00%
system.ruby.L1Cache_Controller.IS.DataS_fromL1::total        60658                      
system.ruby.L1Cache_Controller.IS.Data_all_Acks |           7      0.00%      0.00% |       61583     41.60%     41.61% |       86437     58.39%    100.00%
system.ruby.L1Cache_Controller.IS.Data_all_Acks::total       148027                      
system.ruby.L1Cache_Controller.IM.Data   |           0      0.00%      0.00% |           3     50.00%     50.00% |           3     50.00%    100.00%
system.ruby.L1Cache_Controller.IM.Data::total            6                      
system.ruby.L1Cache_Controller.IM.Data_all_Acks |      122828     98.09%     98.09% |         820      0.65%     98.75% |        1568      1.25%    100.00%
system.ruby.L1Cache_Controller.IM.Data_all_Acks::total       125216                      
system.ruby.L1Cache_Controller.SM.Ack    |          38      0.06%      0.06% |       34210     54.26%     54.32% |       28798     45.68%    100.00%
system.ruby.L1Cache_Controller.SM.Ack::total        63046                      
system.ruby.L1Cache_Controller.SM.Ack_all |          31      0.05%      0.05% |       30521     51.42%     51.48% |       28801     48.52%    100.00%
system.ruby.L1Cache_Controller.SM.Ack_all::total        59353                      
system.ruby.L1Cache_Controller.M_I.Fwd_GETS |           0      0.00%      0.00% |           2    100.00%    100.00% |           0      0.00%    100.00%
system.ruby.L1Cache_Controller.M_I.Fwd_GETS::total            2                      
system.ruby.L1Cache_Controller.M_I.WB_Ack |      119257     32.87%     32.87% |      149415     41.18%     74.04% |       94188     25.96%    100.00%
system.ruby.L1Cache_Controller.M_I.WB_Ack::total       362860                      
system.ruby.L1Cache_Controller.SINK_WB_ACK.WB_Ack |           0      0.00%      0.00% |           2    100.00%    100.00% |           0      0.00%    100.00%
system.ruby.L1Cache_Controller.SINK_WB_ACK.WB_Ack::total            2                      
system.ruby.L1Cache_Controller.S_IL0.L0_Invalidate_Own |           0      0.00%      0.00% |       57999     39.04%     39.04% |       90583     60.96%    100.00%
system.ruby.L1Cache_Controller.S_IL0.L0_Invalidate_Own::total       148582                      
system.ruby.L1Cache_Controller.S_IL0.L0_Invalidate_Else |          14     43.75%     43.75% |           3      9.38%     53.12% |          15     46.88%    100.00%
system.ruby.L1Cache_Controller.S_IL0.L0_Invalidate_Else::total           32                      
system.ruby.L1Cache_Controller.S_IL0.L0_Ack |          14      0.01%      0.01% |       58002     39.03%     39.04% |       90598     60.96%    100.00%
system.ruby.L1Cache_Controller.S_IL0.L0_Ack::total       148614                      
system.ruby.L1Cache_Controller.E_IL0.L0_DataAck |         109     36.58%     36.58% |          85     28.52%     65.10% |         104     34.90%    100.00%
system.ruby.L1Cache_Controller.E_IL0.L0_DataAck::total          298                      
system.ruby.L1Cache_Controller.E_IL0.L0_Invalidate_Own |        1200     54.08%     54.08% |         455     20.50%     74.58% |         564     25.42%    100.00%
system.ruby.L1Cache_Controller.E_IL0.L0_Invalidate_Own::total         2219                      
system.ruby.L1Cache_Controller.E_IL0.L0_Invalidate_Else |          17      0.31%      0.31% |          41      0.74%      1.05% |        5450     98.95%    100.00%
system.ruby.L1Cache_Controller.E_IL0.L0_Invalidate_Else::total         5508                      
system.ruby.L1Cache_Controller.E_IL0.L0_Ack |        1108     14.91%     14.91% |         411      5.53%     20.45% |        5910     79.55%    100.00%
system.ruby.L1Cache_Controller.E_IL0.L0_Ack::total         7429                      
system.ruby.L1Cache_Controller.M_IL0.WriteBack |           0      0.00%      0.00% |          32    100.00%    100.00% |           0      0.00%    100.00%
system.ruby.L1Cache_Controller.M_IL0.WriteBack::total           32                      
system.ruby.L1Cache_Controller.M_IL0.L0_DataAck |        1798     27.96%     27.96% |        4041     62.85%     90.81% |         591      9.19%    100.00%
system.ruby.L1Cache_Controller.M_IL0.L0_DataAck::total         6430                      
system.ruby.L1Cache_Controller.M_IL0.L0_Invalidate_Own |        1127     60.92%     60.92% |         273     14.76%     75.68% |         450     24.32%    100.00%
system.ruby.L1Cache_Controller.M_IL0.L0_Invalidate_Own::total         1850                      
system.ruby.L1Cache_Controller.M_IL0.L0_Invalidate_Else |         724     15.13%     15.13% |        3801     79.45%     94.59% |         259      5.41%    100.00%
system.ruby.L1Cache_Controller.M_IL0.L0_Invalidate_Else::total         4784                      
system.ruby.L1Cache_Controller.M_IL0.L0_Ack |          53     30.81%     30.81% |           1      0.58%     31.40% |         118     68.60%    100.00%
system.ruby.L1Cache_Controller.M_IL0.L0_Ack::total          172                      
system.ruby.L1Cache_Controller.MM_IL0.Fwd_GETS |           0      0.00%      0.00% |          32    100.00%    100.00% |           0      0.00%    100.00%
system.ruby.L1Cache_Controller.MM_IL0.Fwd_GETS::total           32                      
system.ruby.L1Cache_Controller.MM_IL0.L0_Ack |           0      0.00%      0.00% |          32    100.00%    100.00% |           0      0.00%    100.00%
system.ruby.L1Cache_Controller.MM_IL0.L0_Ack::total           32                      
system.ruby.L2Cache_Controller.L1_GETS         460660      0.00%      0.00%
system.ruby.L2Cache_Controller.L1_GETX         125222      0.00%      0.00%
system.ruby.L2Cache_Controller.L1_UPGRADE        59347      0.00%      0.00%
system.ruby.L2Cache_Controller.L1_PUTX         362864      0.00%      0.00%
system.ruby.L2Cache_Controller.Mem_Data        103648      0.00%      0.00%
system.ruby.L2Cache_Controller.WB_Data          41205      0.00%      0.00%
system.ruby.L2Cache_Controller.WB_Data_clean        19453      0.00%      0.00%
system.ruby.L2Cache_Controller.Unblock          60658      0.00%      0.00%
system.ruby.L2Cache_Controller.Exclusive_Unblock       436535      0.00%      0.00%
system.ruby.L2Cache_Controller.NP.L1_GETS         7920      0.00%      0.00%
system.ruby.L2Cache_Controller.NP.L1_GETX        95728      0.00%      0.00%
system.ruby.L2Cache_Controller.SS.L1_GETS       148011      0.00%      0.00%
system.ruby.L2Cache_Controller.SS.L1_GETX            6      0.00%      0.00%
system.ruby.L2Cache_Controller.SS.L1_UPGRADE        59347      0.00%      0.00%
system.ruby.L2Cache_Controller.SS.L1_PUTX            2      0.00%      0.00%
system.ruby.L2Cache_Controller.M.L1_GETS       244054      0.00%      0.00%
system.ruby.L2Cache_Controller.M.L1_GETX        29466      0.00%      0.00%
system.ruby.L2Cache_Controller.MT.L1_GETS        60658      0.00%      0.00%
system.ruby.L2Cache_Controller.MT.L1_GETX           22      0.00%      0.00%
system.ruby.L2Cache_Controller.MT.L1_PUTX       362860      0.00%      0.00%
system.ruby.L2Cache_Controller.ISS.L1_GETS            8      0.00%      0.00%
system.ruby.L2Cache_Controller.ISS.Mem_Data         7912      0.00%      0.00%
system.ruby.L2Cache_Controller.IS.Mem_Data            8      0.00%      0.00%
system.ruby.L2Cache_Controller.IM.Mem_Data        95728      0.00%      0.00%
system.ruby.L2Cache_Controller.SS_MB.L1_GETS            4      0.00%      0.00%
system.ruby.L2Cache_Controller.SS_MB.Exclusive_Unblock        59353      0.00%      0.00%
system.ruby.L2Cache_Controller.MT_MB.L1_GETS            3      0.00%      0.00%
system.ruby.L2Cache_Controller.MT_MB.Exclusive_Unblock       377182      0.00%      0.00%
system.ruby.L2Cache_Controller.MT_IIB.L1_GETS            2      0.00%      0.00%
system.ruby.L2Cache_Controller.MT_IIB.L1_PUTX            2      0.00%      0.00%
system.ruby.L2Cache_Controller.MT_IIB.WB_Data        41192      0.00%      0.00%
system.ruby.L2Cache_Controller.MT_IIB.WB_Data_clean        19433      0.00%      0.00%
system.ruby.L2Cache_Controller.MT_IIB.Unblock           33      0.00%      0.00%
system.ruby.L2Cache_Controller.MT_IB.WB_Data           13      0.00%      0.00%
system.ruby.L2Cache_Controller.MT_IB.WB_Data_clean           20      0.00%      0.00%
system.ruby.L2Cache_Controller.MT_SB.Unblock        60625      0.00%      0.00%

---------- End Simulation Statistics   ----------
