
---------- Begin Simulation Statistics ----------
sim_seconds                                  0.036899                       # Number of seconds simulated
sim_ticks                                 36898551500                       # Number of ticks simulated
final_tick                                36898551500                       # Number of ticks from beginning of simulation (restored from checkpoints and never reset)
sim_freq                                 1000000000000                       # Frequency of simulated ticks
host_inst_rate                                 148079                       # Simulator instruction rate (inst/s)
host_op_rate                                   339916                       # Simulator op (including micro ops) rate (op/s)
host_tick_rate                              208262742                       # Simulator tick rate (ticks/s)
host_mem_usage                                 758136                       # Number of bytes of host memory used
host_seconds                                   177.17                       # Real time elapsed on the host
sim_insts                                    26235543                       # Number of instructions simulated
sim_ops                                      60223928                       # Number of ops (including micro ops) simulated
system.voltage_domain.voltage                       1                       # Voltage in Volts
system.clk_domain.clock                          1000                       # Clock period in ticks
system.mem_ctrls.bytes_read::ruby.dir_cntrl0      1077248                       # Number of bytes read from this memory
system.mem_ctrls.bytes_read::total            1077248                       # Number of bytes read from this memory
system.mem_ctrls.num_reads::ruby.dir_cntrl0        16832                       # Number of read requests responded to by this memory
system.mem_ctrls.num_reads::total               16832                       # Number of read requests responded to by this memory
system.mem_ctrls.bw_read::ruby.dir_cntrl0     29194859                       # Total read bandwidth from this memory (bytes/s)
system.mem_ctrls.bw_read::total              29194859                       # Total read bandwidth from this memory (bytes/s)
system.mem_ctrls.bw_total::ruby.dir_cntrl0     29194859                       # Total bandwidth to/from this memory (bytes/s)
system.mem_ctrls.bw_total::total             29194859                       # Total bandwidth to/from this memory (bytes/s)
system.mem_ctrls.readReqs                       16832                       # Number of read requests accepted
system.mem_ctrls.writeReqs                          0                       # Number of write requests accepted
system.mem_ctrls.readBursts                     16832                       # Number of DRAM read bursts, including those serviced by the write queue
system.mem_ctrls.writeBursts                        0                       # Number of DRAM write bursts, including those merged in the write queue
system.mem_ctrls.bytesReadDRAM                1077248                       # Total number of bytes read from DRAM
system.mem_ctrls.bytesReadWrQ                       0                       # Total number of bytes read from write queue
system.mem_ctrls.bytesWritten                       0                       # Total number of bytes written to DRAM
system.mem_ctrls.bytesReadSys                 1077248                       # Total read bytes from the system interface side
system.mem_ctrls.bytesWrittenSys                    0                       # Total written bytes from the system interface side
system.mem_ctrls.servicedByWrQ                      0                       # Number of DRAM read bursts serviced by the write queue
system.mem_ctrls.mergedWrBursts                     0                       # Number of DRAM write bursts merged with an existing one
system.mem_ctrls.neitherReadNorWriteReqs            0                       # Number of requests that are neither read nor write
system.mem_ctrls.perBankRdBursts::0              1104                       # Per bank write bursts
system.mem_ctrls.perBankRdBursts::1              1137                       # Per bank write bursts
system.mem_ctrls.perBankRdBursts::2              1048                       # Per bank write bursts
system.mem_ctrls.perBankRdBursts::3               944                       # Per bank write bursts
system.mem_ctrls.perBankRdBursts::4               997                       # Per bank write bursts
system.mem_ctrls.perBankRdBursts::5               936                       # Per bank write bursts
system.mem_ctrls.perBankRdBursts::6               987                       # Per bank write bursts
system.mem_ctrls.perBankRdBursts::7              1043                       # Per bank write bursts
system.mem_ctrls.perBankRdBursts::8               938                       # Per bank write bursts
system.mem_ctrls.perBankRdBursts::9              1062                       # Per bank write bursts
system.mem_ctrls.perBankRdBursts::10             1129                       # Per bank write bursts
system.mem_ctrls.perBankRdBursts::11             1171                       # Per bank write bursts
system.mem_ctrls.perBankRdBursts::12             1105                       # Per bank write bursts
system.mem_ctrls.perBankRdBursts::13             1095                       # Per bank write bursts
system.mem_ctrls.perBankRdBursts::14             1067                       # Per bank write bursts
system.mem_ctrls.perBankRdBursts::15             1069                       # Per bank write bursts
system.mem_ctrls.perBankWrBursts::0                 0                       # Per bank write bursts
system.mem_ctrls.perBankWrBursts::1                 0                       # Per bank write bursts
system.mem_ctrls.perBankWrBursts::2                 0                       # Per bank write bursts
system.mem_ctrls.perBankWrBursts::3                 0                       # Per bank write bursts
system.mem_ctrls.perBankWrBursts::4                 0                       # Per bank write bursts
system.mem_ctrls.perBankWrBursts::5                 0                       # Per bank write bursts
system.mem_ctrls.perBankWrBursts::6                 0                       # Per bank write bursts
system.mem_ctrls.perBankWrBursts::7                 0                       # Per bank write bursts
system.mem_ctrls.perBankWrBursts::8                 0                       # Per bank write bursts
system.mem_ctrls.perBankWrBursts::9                 0                       # Per bank write bursts
system.mem_ctrls.perBankWrBursts::10                0                       # Per bank write bursts
system.mem_ctrls.perBankWrBursts::11                0                       # Per bank write bursts
system.mem_ctrls.perBankWrBursts::12                0                       # Per bank write bursts
system.mem_ctrls.perBankWrBursts::13                0                       # Per bank write bursts
system.mem_ctrls.perBankWrBursts::14                0                       # Per bank write bursts
system.mem_ctrls.perBankWrBursts::15                0                       # Per bank write bursts
system.mem_ctrls.numRdRetry                         0                       # Number of times read queue was full causing retry
system.mem_ctrls.numWrRetry                         0                       # Number of times write queue was full causing retry
system.mem_ctrls.totGap                   36898490500                       # Total gap between requests
system.mem_ctrls.readPktSize::0                     0                       # Read request sizes (log2)
system.mem_ctrls.readPktSize::1                     0                       # Read request sizes (log2)
system.mem_ctrls.readPktSize::2                     0                       # Read request sizes (log2)
system.mem_ctrls.readPktSize::3                     0                       # Read request sizes (log2)
system.mem_ctrls.readPktSize::4                     0                       # Read request sizes (log2)
system.mem_ctrls.readPktSize::5                     0                       # Read request sizes (log2)
system.mem_ctrls.readPktSize::6                 16832                       # Read request sizes (log2)
system.mem_ctrls.writePktSize::0                    0                       # Write request sizes (log2)
system.mem_ctrls.writePktSize::1                    0                       # Write request sizes (log2)
system.mem_ctrls.writePktSize::2                    0                       # Write request sizes (log2)
system.mem_ctrls.writePktSize::3                    0                       # Write request sizes (log2)
system.mem_ctrls.writePktSize::4                    0                       # Write request sizes (log2)
system.mem_ctrls.writePktSize::5                    0                       # Write request sizes (log2)
system.mem_ctrls.writePktSize::6                    0                       # Write request sizes (log2)
system.mem_ctrls.rdQLenPdf::0                   16831                       # What read queue length does an incoming req see
system.mem_ctrls.rdQLenPdf::1                       1                       # What read queue length does an incoming req see
system.mem_ctrls.rdQLenPdf::2                       0                       # What read queue length does an incoming req see
system.mem_ctrls.rdQLenPdf::3                       0                       # What read queue length does an incoming req see
system.mem_ctrls.rdQLenPdf::4                       0                       # What read queue length does an incoming req see
system.mem_ctrls.rdQLenPdf::5                       0                       # What read queue length does an incoming req see
system.mem_ctrls.rdQLenPdf::6                       0                       # What read queue length does an incoming req see
system.mem_ctrls.rdQLenPdf::7                       0                       # What read queue length does an incoming req see
system.mem_ctrls.rdQLenPdf::8                       0                       # What read queue length does an incoming req see
system.mem_ctrls.rdQLenPdf::9                       0                       # What read queue length does an incoming req see
system.mem_ctrls.rdQLenPdf::10                      0                       # What read queue length does an incoming req see
system.mem_ctrls.rdQLenPdf::11                      0                       # What read queue length does an incoming req see
system.mem_ctrls.rdQLenPdf::12                      0                       # What read queue length does an incoming req see
system.mem_ctrls.rdQLenPdf::13                      0                       # What read queue length does an incoming req see
system.mem_ctrls.rdQLenPdf::14                      0                       # What read queue length does an incoming req see
system.mem_ctrls.rdQLenPdf::15                      0                       # What read queue length does an incoming req see
system.mem_ctrls.rdQLenPdf::16                      0                       # What read queue length does an incoming req see
system.mem_ctrls.rdQLenPdf::17                      0                       # What read queue length does an incoming req see
system.mem_ctrls.rdQLenPdf::18                      0                       # What read queue length does an incoming req see
system.mem_ctrls.rdQLenPdf::19                      0                       # What read queue length does an incoming req see
system.mem_ctrls.rdQLenPdf::20                      0                       # What read queue length does an incoming req see
system.mem_ctrls.rdQLenPdf::21                      0                       # What read queue length does an incoming req see
system.mem_ctrls.rdQLenPdf::22                      0                       # What read queue length does an incoming req see
system.mem_ctrls.rdQLenPdf::23                      0                       # What read queue length does an incoming req see
system.mem_ctrls.rdQLenPdf::24                      0                       # What read queue length does an incoming req see
system.mem_ctrls.rdQLenPdf::25                      0                       # What read queue length does an incoming req see
system.mem_ctrls.rdQLenPdf::26                      0                       # What read queue length does an incoming req see
system.mem_ctrls.rdQLenPdf::27                      0                       # What read queue length does an incoming req see
system.mem_ctrls.rdQLenPdf::28                      0                       # What read queue length does an incoming req see
system.mem_ctrls.rdQLenPdf::29                      0                       # What read queue length does an incoming req see
system.mem_ctrls.rdQLenPdf::30                      0                       # What read queue length does an incoming req see
system.mem_ctrls.rdQLenPdf::31                      0                       # What read queue length does an incoming req see
system.mem_ctrls.wrQLenPdf::0                       0                       # What write queue length does an incoming req see
system.mem_ctrls.wrQLenPdf::1                       0                       # What write queue length does an incoming req see
system.mem_ctrls.wrQLenPdf::2                       0                       # What write queue length does an incoming req see
system.mem_ctrls.wrQLenPdf::3                       0                       # What write queue length does an incoming req see
system.mem_ctrls.wrQLenPdf::4                       0                       # What write queue length does an incoming req see
system.mem_ctrls.wrQLenPdf::5                       0                       # What write queue length does an incoming req see
system.mem_ctrls.wrQLenPdf::6                       0                       # What write queue length does an incoming req see
system.mem_ctrls.wrQLenPdf::7                       0                       # What write queue length does an incoming req see
system.mem_ctrls.wrQLenPdf::8                       0                       # What write queue length does an incoming req see
system.mem_ctrls.wrQLenPdf::9                       0                       # What write queue length does an incoming req see
system.mem_ctrls.wrQLenPdf::10                      0                       # What write queue length does an incoming req see
system.mem_ctrls.wrQLenPdf::11                      0                       # What write queue length does an incoming req see
system.mem_ctrls.wrQLenPdf::12                      0                       # What write queue length does an incoming req see
system.mem_ctrls.wrQLenPdf::13                      0                       # What write queue length does an incoming req see
system.mem_ctrls.wrQLenPdf::14                      0                       # What write queue length does an incoming req see
system.mem_ctrls.wrQLenPdf::15                      0                       # What write queue length does an incoming req see
system.mem_ctrls.wrQLenPdf::16                      0                       # What write queue length does an incoming req see
system.mem_ctrls.wrQLenPdf::17                      0                       # What write queue length does an incoming req see
system.mem_ctrls.wrQLenPdf::18                      0                       # What write queue length does an incoming req see
system.mem_ctrls.wrQLenPdf::19                      0                       # What write queue length does an incoming req see
system.mem_ctrls.wrQLenPdf::20                      0                       # What write queue length does an incoming req see
system.mem_ctrls.wrQLenPdf::21                      0                       # What write queue length does an incoming req see
system.mem_ctrls.wrQLenPdf::22                      0                       # What write queue length does an incoming req see
system.mem_ctrls.wrQLenPdf::23                      0                       # What write queue length does an incoming req see
system.mem_ctrls.wrQLenPdf::24                      0                       # What write queue length does an incoming req see
system.mem_ctrls.wrQLenPdf::25                      0                       # What write queue length does an incoming req see
system.mem_ctrls.wrQLenPdf::26                      0                       # What write queue length does an incoming req see
system.mem_ctrls.wrQLenPdf::27                      0                       # What write queue length does an incoming req see
system.mem_ctrls.wrQLenPdf::28                      0                       # What write queue length does an incoming req see
system.mem_ctrls.wrQLenPdf::29                      0                       # What write queue length does an incoming req see
system.mem_ctrls.wrQLenPdf::30                      0                       # What write queue length does an incoming req see
system.mem_ctrls.wrQLenPdf::31                      0                       # What write queue length does an incoming req see
system.mem_ctrls.wrQLenPdf::32                      0                       # What write queue length does an incoming req see
system.mem_ctrls.wrQLenPdf::33                      0                       # What write queue length does an incoming req see
system.mem_ctrls.wrQLenPdf::34                      0                       # What write queue length does an incoming req see
system.mem_ctrls.wrQLenPdf::35                      0                       # What write queue length does an incoming req see
system.mem_ctrls.wrQLenPdf::36                      0                       # What write queue length does an incoming req see
system.mem_ctrls.wrQLenPdf::37                      0                       # What write queue length does an incoming req see
system.mem_ctrls.wrQLenPdf::38                      0                       # What write queue length does an incoming req see
system.mem_ctrls.wrQLenPdf::39                      0                       # What write queue length does an incoming req see
system.mem_ctrls.wrQLenPdf::40                      0                       # What write queue length does an incoming req see
system.mem_ctrls.wrQLenPdf::41                      0                       # What write queue length does an incoming req see
system.mem_ctrls.wrQLenPdf::42                      0                       # What write queue length does an incoming req see
system.mem_ctrls.wrQLenPdf::43                      0                       # What write queue length does an incoming req see
system.mem_ctrls.wrQLenPdf::44                      0                       # What write queue length does an incoming req see
system.mem_ctrls.wrQLenPdf::45                      0                       # What write queue length does an incoming req see
system.mem_ctrls.wrQLenPdf::46                      0                       # What write queue length does an incoming req see
system.mem_ctrls.wrQLenPdf::47                      0                       # What write queue length does an incoming req see
system.mem_ctrls.wrQLenPdf::48                      0                       # What write queue length does an incoming req see
system.mem_ctrls.wrQLenPdf::49                      0                       # What write queue length does an incoming req see
system.mem_ctrls.wrQLenPdf::50                      0                       # What write queue length does an incoming req see
system.mem_ctrls.wrQLenPdf::51                      0                       # What write queue length does an incoming req see
system.mem_ctrls.wrQLenPdf::52                      0                       # What write queue length does an incoming req see
system.mem_ctrls.wrQLenPdf::53                      0                       # What write queue length does an incoming req see
system.mem_ctrls.wrQLenPdf::54                      0                       # What write queue length does an incoming req see
system.mem_ctrls.wrQLenPdf::55                      0                       # What write queue length does an incoming req see
system.mem_ctrls.wrQLenPdf::56                      0                       # What write queue length does an incoming req see
system.mem_ctrls.wrQLenPdf::57                      0                       # What write queue length does an incoming req see
system.mem_ctrls.wrQLenPdf::58                      0                       # What write queue length does an incoming req see
system.mem_ctrls.wrQLenPdf::59                      0                       # What write queue length does an incoming req see
system.mem_ctrls.wrQLenPdf::60                      0                       # What write queue length does an incoming req see
system.mem_ctrls.wrQLenPdf::61                      0                       # What write queue length does an incoming req see
system.mem_ctrls.wrQLenPdf::62                      0                       # What write queue length does an incoming req see
system.mem_ctrls.wrQLenPdf::63                      0                       # What write queue length does an incoming req see
system.mem_ctrls.bytesPerActivate::samples         3962                       # Bytes accessed per row activation
system.mem_ctrls.bytesPerActivate::mean    271.200404                       # Bytes accessed per row activation
system.mem_ctrls.bytesPerActivate::gmean   243.301068                       # Bytes accessed per row activation
system.mem_ctrls.bytesPerActivate::stdev   142.385770                       # Bytes accessed per row activation
system.mem_ctrls.bytesPerActivate::0-127          301      7.60%      7.60% # Bytes accessed per row activation
system.mem_ctrls.bytesPerActivate::128-255          285      7.19%     14.79% # Bytes accessed per row activation
system.mem_ctrls.bytesPerActivate::256-383         3144     79.35%     94.14% # Bytes accessed per row activation
system.mem_ctrls.bytesPerActivate::384-511           75      1.89%     96.04% # Bytes accessed per row activation
system.mem_ctrls.bytesPerActivate::512-639           30      0.76%     96.79% # Bytes accessed per row activation
system.mem_ctrls.bytesPerActivate::640-767           14      0.35%     97.15% # Bytes accessed per row activation
system.mem_ctrls.bytesPerActivate::768-895           18      0.45%     97.60% # Bytes accessed per row activation
system.mem_ctrls.bytesPerActivate::896-1023           26      0.66%     98.26% # Bytes accessed per row activation
system.mem_ctrls.bytesPerActivate::1024-1151           69      1.74%    100.00% # Bytes accessed per row activation
system.mem_ctrls.bytesPerActivate::total         3962                       # Bytes accessed per row activation
system.mem_ctrls.totQLat                    166344750                       # Total ticks spent queuing
system.mem_ctrls.totMemAccLat               481944750                       # Total ticks spent from burst creation until serviced by the DRAM
system.mem_ctrls.totBusLat                   84160000                       # Total ticks spent in databus transfers
system.mem_ctrls.avgQLat                      9882.65                       # Average queueing delay per DRAM burst
system.mem_ctrls.avgBusLat                    5000.00                       # Average bus latency per DRAM burst
system.mem_ctrls.avgMemAccLat                28632.65                       # Average memory access latency per DRAM burst
system.mem_ctrls.avgRdBW                        29.19                       # Average DRAM read bandwidth in MiByte/s
system.mem_ctrls.avgWrBW                         0.00                       # Average achieved write bandwidth in MiByte/s
system.mem_ctrls.avgRdBWSys                     29.19                       # Average system read bandwidth in MiByte/s
system.mem_ctrls.avgWrBWSys                      0.00                       # Average system write bandwidth in MiByte/s
system.mem_ctrls.peakBW                      12800.00                       # Theoretical peak bandwidth in MiByte/s
system.mem_ctrls.busUtil                         0.23                       # Data bus utilization in percentage
system.mem_ctrls.busUtilRead                     0.23                       # Data bus utilization in percentage for reads
system.mem_ctrls.busUtilWrite                    0.00                       # Data bus utilization in percentage for writes
system.mem_ctrls.avgRdQLen                       1.00                       # Average read queue length when enqueuing
system.mem_ctrls.avgWrQLen                       0.00                       # Average write queue length when enqueuing
system.mem_ctrls.readRowHits                    12859                       # Number of row buffer hits during reads
system.mem_ctrls.writeRowHits                       0                       # Number of row buffer hits during writes
system.mem_ctrls.readRowHitRate                 76.40                       # Row buffer hit rate for reads
system.mem_ctrls.writeRowHitRate                  nan                       # Row buffer hit rate for writes
system.mem_ctrls.avgGap                    2192163.17                       # Average gap between requests
system.mem_ctrls.pageHitRate                    76.40                       # Row buffer hit rate, read and write combined
system.mem_ctrls_0.actEnergy                 14651280                       # Energy for activate commands per rank (pJ)
system.mem_ctrls_0.preEnergy                  7994250                       # Energy for precharge commands per rank (pJ)
system.mem_ctrls_0.readEnergy                63710400                       # Energy for read commands per rank (pJ)
system.mem_ctrls_0.writeEnergy                      0                       # Energy for write commands per rank (pJ)
system.mem_ctrls_0.refreshEnergy           2409557280                       # Energy for refresh commands per rank (pJ)
system.mem_ctrls_0.actBackEnergy           8077438935                       # Energy for active background per rank (pJ)
system.mem_ctrls_0.preBackEnergy          15049434750                       # Energy for precharge background per rank (pJ)
system.mem_ctrls_0.totalEnergy            25622786895                       # Total energy per rank (pJ)
system.mem_ctrls_0.averagePower            694.544223                       # Core power per rank (mW)
system.mem_ctrls_0.memoryStateTime::IDLE  24994744000                       # Time in different power states
system.mem_ctrls_0.memoryStateTime::REF    1231880000                       # Time in different power states
system.mem_ctrls_0.memoryStateTime::PRE_PDN            0                       # Time in different power states
system.mem_ctrls_0.memoryStateTime::ACT   10665180500                       # Time in different power states
system.mem_ctrls_0.memoryStateTime::ACT_PDN            0                       # Time in different power states
system.mem_ctrls_1.actEnergy                 15263640                       # Energy for activate commands per rank (pJ)
system.mem_ctrls_1.preEnergy                  8328375                       # Energy for precharge commands per rank (pJ)
system.mem_ctrls_1.readEnergy                67165800                       # Energy for read commands per rank (pJ)
system.mem_ctrls_1.writeEnergy                      0                       # Energy for write commands per rank (pJ)
system.mem_ctrls_1.refreshEnergy           2409557280                       # Energy for refresh commands per rank (pJ)
system.mem_ctrls_1.actBackEnergy           9286666290                       # Energy for active background per rank (pJ)
system.mem_ctrls_1.preBackEnergy          13988700750                       # Energy for precharge background per rank (pJ)
system.mem_ctrls_1.totalEnergy            25775682135                       # Total energy per rank (pJ)
system.mem_ctrls_1.averagePower            698.688939                       # Core power per rank (mW)
system.mem_ctrls_1.memoryStateTime::IDLE  23227509250                       # Time in different power states
system.mem_ctrls_1.memoryStateTime::REF    1231880000                       # Time in different power states
system.mem_ctrls_1.memoryStateTime::PRE_PDN            0                       # Time in different power states
system.mem_ctrls_1.memoryStateTime::ACT   12436749250                       # Time in different power states
system.mem_ctrls_1.memoryStateTime::ACT_PDN            0                       # Time in different power states
system.cpu_voltage_domain.voltage                   1                       # Voltage in Volts
system.cpu_clk_domain.clock                       500                       # Clock period in ticks
system.cpu0.apic_clk_domain.clock                8000                       # Clock period in ticks
system.cpu0.workload.num_syscalls                 147                       # Number of system calls
system.cpu0.numCycles                        73797103                       # number of cpu cycles simulated
system.cpu0.numWorkItemsStarted                     0                       # number of work items this cpu started
system.cpu0.numWorkItemsCompleted                   0                       # number of work items this cpu completed
system.cpu0.committedInsts                   20429627                       # Number of instructions committed
system.cpu0.committedOps                     48782055                       # Number of ops (including micro ops) committed
system.cpu0.num_int_alu_accesses             46571893                       # Number of integer alu accesses
system.cpu0.num_fp_alu_accesses               1046388                       # Number of float alu accesses
system.cpu0.num_func_calls                    1354556                       # number of times a function call or return occured
system.cpu0.num_conditional_control_insts      4268991                       # number of instructions that are conditional controls
system.cpu0.num_int_insts                    46571893                       # number of integer instructions
system.cpu0.num_fp_insts                      1046388                       # number of float instructions
system.cpu0.num_int_register_reads           99505571                       # number of times the integer registers were read
system.cpu0.num_int_register_writes          43904683                       # number of times the integer registers were written
system.cpu0.num_fp_register_reads             1676145                       # number of times the floating registers were read
system.cpu0.num_fp_register_writes             833890                       # number of times the floating registers were written
system.cpu0.num_cc_register_reads            39045873                       # number of times the CC registers were read
system.cpu0.num_cc_register_writes           14446913                       # number of times the CC registers were written
system.cpu0.num_mem_refs                      9820435                       # number of memory refs
system.cpu0.num_load_insts                    6242854                       # Number of load instructions
system.cpu0.num_store_insts                   3577581                       # Number of store instructions
system.cpu0.num_idle_cycles                  0.002000                       # Number of idle cycles
system.cpu0.num_busy_cycles              73797102.998000                       # Number of busy cycles
system.cpu0.not_idle_fraction                1.000000                       # Percentage of non-idle cycles
system.cpu0.idle_fraction                    0.000000                       # Percentage of idle cycles
system.cpu0.Branches                          6292763                       # Number of branches fetched
system.cpu0.op_class::No_OpClass               682261      1.40%      1.40% # Class of executed instruction
system.cpu0.op_class::IntAlu                 34082898     69.87%     71.27% # Class of executed instruction
system.cpu0.op_class::IntMult                     669      0.00%     71.27% # Class of executed instruction
system.cpu0.op_class::IntDiv                  3362893      6.89%     78.16% # Class of executed instruction
system.cpu0.op_class::FloatAdd                 832899      1.71%     79.87% # Class of executed instruction
system.cpu0.op_class::FloatCmp                      0      0.00%     79.87% # Class of executed instruction
system.cpu0.op_class::FloatCvt                      0      0.00%     79.87% # Class of executed instruction
system.cpu0.op_class::FloatMult                     0      0.00%     79.87% # Class of executed instruction
system.cpu0.op_class::FloatDiv                      0      0.00%     79.87% # Class of executed instruction
system.cpu0.op_class::FloatSqrt                     0      0.00%     79.87% # Class of executed instruction
system.cpu0.op_class::SimdAdd                       0      0.00%     79.87% # Class of executed instruction
system.cpu0.op_class::SimdAddAcc                    0      0.00%     79.87% # Class of executed instruction
system.cpu0.op_class::SimdAlu                       0      0.00%     79.87% # Class of executed instruction
system.cpu0.op_class::SimdCmp                       0      0.00%     79.87% # Class of executed instruction
system.cpu0.op_class::SimdCvt                       0      0.00%     79.87% # Class of executed instruction
system.cpu0.op_class::SimdMisc                      0      0.00%     79.87% # Class of executed instruction
system.cpu0.op_class::SimdMult                      0      0.00%     79.87% # Class of executed instruction
system.cpu0.op_class::SimdMultAcc                   0      0.00%     79.87% # Class of executed instruction
system.cpu0.op_class::SimdShift                     0      0.00%     79.87% # Class of executed instruction
system.cpu0.op_class::SimdShiftAcc                  0      0.00%     79.87% # Class of executed instruction
system.cpu0.op_class::SimdSqrt                      0      0.00%     79.87% # Class of executed instruction
system.cpu0.op_class::SimdFloatAdd                  0      0.00%     79.87% # Class of executed instruction
system.cpu0.op_class::SimdFloatAlu                  0      0.00%     79.87% # Class of executed instruction
system.cpu0.op_class::SimdFloatCmp                  0      0.00%     79.87% # Class of executed instruction
system.cpu0.op_class::SimdFloatCvt                  0      0.00%     79.87% # Class of executed instruction
system.cpu0.op_class::SimdFloatDiv                  0      0.00%     79.87% # Class of executed instruction
system.cpu0.op_class::SimdFloatMisc                 0      0.00%     79.87% # Class of executed instruction
system.cpu0.op_class::SimdFloatMult                 0      0.00%     79.87% # Class of executed instruction
system.cpu0.op_class::SimdFloatMultAcc              0      0.00%     79.87% # Class of executed instruction
system.cpu0.op_class::SimdFloatSqrt                 0      0.00%     79.87% # Class of executed instruction
system.cpu0.op_class::MemRead                 6242854     12.80%     92.67% # Class of executed instruction
system.cpu0.op_class::MemWrite                3577581      7.33%    100.00% # Class of executed instruction
system.cpu0.op_class::IprAccess                     0      0.00%    100.00% # Class of executed instruction
system.cpu0.op_class::InstPrefetch                  0      0.00%    100.00% # Class of executed instruction
system.cpu0.op_class::total                  48782055                       # Class of executed instruction
system.cpu1.apic_clk_domain.clock                8000                       # Clock period in ticks
system.cpu1.numCycles                        73628635                       # number of cpu cycles simulated
system.cpu1.numWorkItemsStarted                     0                       # number of work items this cpu started
system.cpu1.numWorkItemsCompleted                   0                       # number of work items this cpu completed
system.cpu1.committedInsts                    5805916                       # Number of instructions committed
system.cpu1.committedOps                     11441873                       # Number of ops (including micro ops) committed
system.cpu1.num_int_alu_accesses              9006180                       # Number of integer alu accesses
system.cpu1.num_fp_alu_accesses               5623761                       # Number of float alu accesses
system.cpu1.num_func_calls                      61161                       # number of times a function call or return occured
system.cpu1.num_conditional_control_insts       629834                       # number of instructions that are conditional controls
system.cpu1.num_int_insts                     9006180                       # number of integer instructions
system.cpu1.num_fp_insts                      5623761                       # number of float instructions
system.cpu1.num_int_register_reads           17093249                       # number of times the integer registers were read
system.cpu1.num_int_register_writes           5151727                       # number of times the integer registers were written
system.cpu1.num_fp_register_reads             7957964                       # number of times the floating registers were read
system.cpu1.num_fp_register_writes            4749661                       # number of times the floating registers were written
system.cpu1.num_cc_register_reads             3809684                       # number of times the CC registers were read
system.cpu1.num_cc_register_writes            3793245                       # number of times the CC registers were written
system.cpu1.num_mem_refs                      3336988                       # number of memory refs
system.cpu1.num_load_insts                    2431979                       # Number of load instructions
system.cpu1.num_store_insts                    905009                       # Number of store instructions
system.cpu1.num_idle_cycles              50105638.432438                       # Number of idle cycles
system.cpu1.num_busy_cycles              23522996.567562                       # Number of busy cycles
system.cpu1.not_idle_fraction                0.319482                       # Percentage of non-idle cycles
system.cpu1.idle_fraction                    0.680518                       # Percentage of idle cycles
system.cpu1.Branches                           724269                       # Number of branches fetched
system.cpu1.op_class::No_OpClass                    9      0.00%      0.00% # Class of executed instruction
system.cpu1.op_class::IntAlu                  5580345     48.77%     48.77% # Class of executed instruction
system.cpu1.op_class::IntMult                   88766      0.78%     49.55% # Class of executed instruction
system.cpu1.op_class::IntDiv                       63      0.00%     49.55% # Class of executed instruction
system.cpu1.op_class::FloatAdd                2435702     21.29%     70.84% # Class of executed instruction
system.cpu1.op_class::FloatCmp                      0      0.00%     70.84% # Class of executed instruction
system.cpu1.op_class::FloatCvt                      0      0.00%     70.84% # Class of executed instruction
system.cpu1.op_class::FloatMult                     0      0.00%     70.84% # Class of executed instruction
system.cpu1.op_class::FloatDiv                      0      0.00%     70.84% # Class of executed instruction
system.cpu1.op_class::FloatSqrt                     0      0.00%     70.84% # Class of executed instruction
system.cpu1.op_class::SimdAdd                       0      0.00%     70.84% # Class of executed instruction
system.cpu1.op_class::SimdAddAcc                    0      0.00%     70.84% # Class of executed instruction
system.cpu1.op_class::SimdAlu                       0      0.00%     70.84% # Class of executed instruction
system.cpu1.op_class::SimdCmp                       0      0.00%     70.84% # Class of executed instruction
system.cpu1.op_class::SimdCvt                       0      0.00%     70.84% # Class of executed instruction
system.cpu1.op_class::SimdMisc                      0      0.00%     70.84% # Class of executed instruction
system.cpu1.op_class::SimdMult                      0      0.00%     70.84% # Class of executed instruction
system.cpu1.op_class::SimdMultAcc                   0      0.00%     70.84% # Class of executed instruction
system.cpu1.op_class::SimdShift                     0      0.00%     70.84% # Class of executed instruction
system.cpu1.op_class::SimdShiftAcc                  0      0.00%     70.84% # Class of executed instruction
system.cpu1.op_class::SimdSqrt                      0      0.00%     70.84% # Class of executed instruction
system.cpu1.op_class::SimdFloatAdd                  0      0.00%     70.84% # Class of executed instruction
system.cpu1.op_class::SimdFloatAlu                  0      0.00%     70.84% # Class of executed instruction
system.cpu1.op_class::SimdFloatCmp                  0      0.00%     70.84% # Class of executed instruction
system.cpu1.op_class::SimdFloatCvt                  0      0.00%     70.84% # Class of executed instruction
system.cpu1.op_class::SimdFloatDiv                  0      0.00%     70.84% # Class of executed instruction
system.cpu1.op_class::SimdFloatMisc                 0      0.00%     70.84% # Class of executed instruction
system.cpu1.op_class::SimdFloatMult                 0      0.00%     70.84% # Class of executed instruction
system.cpu1.op_class::SimdFloatMultAcc              0      0.00%     70.84% # Class of executed instruction
system.cpu1.op_class::SimdFloatSqrt                 0      0.00%     70.84% # Class of executed instruction
system.cpu1.op_class::MemRead                 2431979     21.26%     92.09% # Class of executed instruction
system.cpu1.op_class::MemWrite                 905009      7.91%    100.00% # Class of executed instruction
system.cpu1.op_class::IprAccess                     0      0.00%    100.00% # Class of executed instruction
system.cpu1.op_class::InstPrefetch                  0      0.00%    100.00% # Class of executed instruction
system.cpu1.op_class::total                  11441873                       # Class of executed instruction
system.ruby.clk_domain.clock                      500                       # Clock period in ticks
system.ruby.delayHist::bucket_size                  2                       # delay histogram for all message
system.ruby.delayHist::max_bucket                  19                       # delay histogram for all message
system.ruby.delayHist::samples                 483782                       # delay histogram for all message
system.ruby.delayHist::mean                  0.626121                       # delay histogram for all message
system.ruby.delayHist::stdev                 2.145091                       # delay histogram for all message
system.ruby.delayHist                    |      445708     92.13%     92.13% |          27      0.01%     92.14% |         522      0.11%     92.24% |           0      0.00%     92.24% |       37518      7.76%    100.00% |           1      0.00%    100.00% |           0      0.00%    100.00% |           5      0.00%    100.00% |           0      0.00%    100.00% |           1      0.00%    100.00% # delay histogram for all message
system.ruby.delayHist::total                   483782                       # delay histogram for all message
system.ruby.outstanding_req_hist::bucket_size            1                      
system.ruby.outstanding_req_hist::max_bucket            9                      
system.ruby.outstanding_req_hist::samples     46794842                      
system.ruby.outstanding_req_hist::mean       1.001000                      
system.ruby.outstanding_req_hist::gmean      1.000694                      
system.ruby.outstanding_req_hist::stdev      0.031615                      
system.ruby.outstanding_req_hist         |           0      0.00%      0.00% |    46748024     99.90%     99.90% |       46818      0.10%    100.00% |           0      0.00%    100.00% |           0      0.00%    100.00% |           0      0.00%    100.00% |           0      0.00%    100.00% |           0      0.00%    100.00% |           0      0.00%    100.00% |           0      0.00%    100.00%
system.ruby.outstanding_req_hist::total      46794842                      
system.ruby.latency_hist::bucket_size             128                      
system.ruby.latency_hist::max_bucket             1279                      
system.ruby.latency_hist::samples            46794842                      
system.ruby.latency_hist::mean               1.082072                      
system.ruby.latency_hist::gmean              1.007172                      
system.ruby.latency_hist::stdev              3.106778                      
system.ruby.latency_hist                 |    46790868     99.99%     99.99% |        3470      0.01%    100.00% |          17      0.00%    100.00% |          41      0.00%    100.00% |         375      0.00%    100.00% |          71      0.00%    100.00% |           0      0.00%    100.00% |           0      0.00%    100.00% |           0      0.00%    100.00% |           0      0.00%    100.00%
system.ruby.latency_hist::total              46794842                      
system.ruby.hit_latency_hist::bucket_size          128                      
system.ruby.hit_latency_hist::max_bucket         1279                      
system.ruby.hit_latency_hist::samples        46794842                      
system.ruby.hit_latency_hist::mean           1.082072                      
system.ruby.hit_latency_hist::gmean          1.007172                      
system.ruby.hit_latency_hist::stdev          3.106778                      
system.ruby.hit_latency_hist             |    46790868     99.99%     99.99% |        3470      0.01%    100.00% |          17      0.00%    100.00% |          41      0.00%    100.00% |         375      0.00%    100.00% |          71      0.00%    100.00% |           0      0.00%    100.00% |           0      0.00%    100.00% |           0      0.00%    100.00% |           0      0.00%    100.00%
system.ruby.hit_latency_hist::total          46794842                      
system.ruby.l0_cntrl0.Dcache.demand_hits      9804892                       # Number of cache demand hits
system.ruby.l0_cntrl0.Dcache.demand_misses        15593                       # Number of cache demand misses
system.ruby.l0_cntrl0.Dcache.demand_accesses      9820485                       # Number of cache demand accesses
system.ruby.l0_cntrl0.Icache.demand_hits     26015861                       # Number of cache demand hits
system.ruby.l0_cntrl0.Icache.demand_misses         2311                       # Number of cache demand misses
system.ruby.l0_cntrl0.Icache.demand_accesses     26018172                       # Number of cache demand accesses
system.ruby.l0_cntrl0.Zcache.demand_hits            0                       # Number of cache demand hits
system.ruby.l0_cntrl0.Zcache.demand_misses            0                       # Number of cache demand misses
system.ruby.l0_cntrl0.Zcache.demand_accesses            0                       # Number of cache demand accesses
system.ruby.l0_cntrl1.Dcache.demand_hits      3286289                       # Number of cache demand hits
system.ruby.l0_cntrl1.Dcache.demand_misses        97467                       # Number of cache demand misses
system.ruby.l0_cntrl1.Dcache.demand_accesses      3383756                       # Number of cache demand accesses
system.ruby.l0_cntrl1.Icache.demand_hits      7572196                       # Number of cache demand hits
system.ruby.l0_cntrl1.Icache.demand_misses          233                       # Number of cache demand misses
system.ruby.l0_cntrl1.Icache.demand_accesses      7572429                       # Number of cache demand accesses
system.ruby.l0_cntrl1.Zcache.demand_hits            0                       # Number of cache demand hits
system.ruby.l0_cntrl1.Zcache.demand_misses            0                       # Number of cache demand misses
system.ruby.l0_cntrl1.Zcache.demand_accesses            0                       # Number of cache demand accesses
system.ruby.l1_cntrl0.cache.demand_hits          2067                       # Number of cache demand hits
system.ruby.l1_cntrl0.cache.demand_misses        15837                       # Number of cache demand misses
system.ruby.l1_cntrl0.cache.demand_accesses        17904                       # Number of cache demand accesses
system.ruby.l1_cntrl1.cache.demand_hits         37337                       # Number of cache demand hits
system.ruby.l1_cntrl1.cache.demand_misses        60363                       # Number of cache demand misses
system.ruby.l1_cntrl1.cache.demand_accesses        97700                       # Number of cache demand accesses
system.ruby.l2_cntrl0.L2cache.demand_hits        55771                       # Number of cache demand hits
system.ruby.l2_cntrl0.L2cache.demand_misses        20429                       # Number of cache demand misses
system.ruby.l2_cntrl0.L2cache.demand_accesses        76200                       # Number of cache demand accesses
system.ruby.memctrl_clk_domain.clock             1500                       # Clock period in ticks
system.ruby.network.routers0.percent_links_utilized            0                      
system.ruby.network.routers1.percent_links_utilized            0                      
system.ruby.network.routers2.percent_links_utilized     0.121861                      
system.ruby.network.routers2.msg_count.Control::0        15837                      
system.ruby.network.routers2.msg_count.Request_Control::2         7103                      
system.ruby.network.routers2.msg_count.Response_Data::1        22961                      
system.ruby.network.routers2.msg_count.Response_Control::1        15062                      
system.ruby.network.routers2.msg_count.Response_Control::2        15837                      
system.ruby.network.routers2.msg_count.Writeback_Data::0        10968                      
system.ruby.network.routers2.msg_count.Writeback_Control::0          521                      
system.ruby.network.routers2.msg_bytes.Control::0       126696                      
system.ruby.network.routers2.msg_bytes.Request_Control::2        56824                      
system.ruby.network.routers2.msg_bytes.Response_Data::1      1653192                      
system.ruby.network.routers2.msg_bytes.Response_Control::1       120496                      
system.ruby.network.routers2.msg_bytes.Response_Control::2       126696                      
system.ruby.network.routers2.msg_bytes.Writeback_Data::0       789696                      
system.ruby.network.routers2.msg_bytes.Writeback_Control::0         4168                      
system.ruby.network.routers3.percent_links_utilized     0.303846                      
system.ruby.network.routers3.msg_count.Control::0        60363                      
system.ruby.network.routers3.msg_count.Request_Control::2           44                      
system.ruby.network.routers3.msg_count.Response_Data::1        56880                      
system.ruby.network.routers3.msg_count.Response_Control::1        49140                      
system.ruby.network.routers3.msg_count.Response_Control::2        49704                      
system.ruby.network.routers3.msg_count.Writeback_Data::0        22960                      
system.ruby.network.routers3.msg_count.Writeback_Control::0        19106                      
system.ruby.network.routers3.msg_bytes.Control::0       482904                      
system.ruby.network.routers3.msg_bytes.Request_Control::2          352                      
system.ruby.network.routers3.msg_bytes.Response_Data::1      4095360                      
system.ruby.network.routers3.msg_bytes.Response_Control::1       393120                      
system.ruby.network.routers3.msg_bytes.Response_Control::2       397632                      
system.ruby.network.routers3.msg_bytes.Writeback_Data::0      1653120                      
system.ruby.network.routers3.msg_bytes.Writeback_Control::0       152848                      
system.ruby.network.routers4.percent_links_utilized     0.458389                      
system.ruby.network.routers4.msg_count.Control::0        93032                      
system.ruby.network.routers4.msg_count.Request_Control::2         7147                      
system.ruby.network.routers4.msg_count.Response_Data::1        89479                      
system.ruby.network.routers4.msg_count.Response_Control::1        57102                      
system.ruby.network.routers4.msg_count.Response_Control::2        65541                      
system.ruby.network.routers4.msg_count.Writeback_Data::0        33928                      
system.ruby.network.routers4.msg_count.Writeback_Control::0        19627                      
system.ruby.network.routers4.msg_bytes.Control::0       744256                      
system.ruby.network.routers4.msg_bytes.Request_Control::2        57176                      
system.ruby.network.routers4.msg_bytes.Response_Data::1      6442488                      
system.ruby.network.routers4.msg_bytes.Response_Control::1       456816                      
system.ruby.network.routers4.msg_bytes.Response_Control::2       524328                      
system.ruby.network.routers4.msg_bytes.Writeback_Data::0      2442816                      
system.ruby.network.routers4.msg_bytes.Writeback_Control::0       157016                      
system.ruby.network.routers5.percent_links_utilized     0.057021                      
system.ruby.network.routers5.msg_count.Control::0        16832                      
system.ruby.network.routers5.msg_count.Response_Data::1        16832                      
system.ruby.network.routers5.msg_bytes.Control::0       134656                      
system.ruby.network.routers5.msg_bytes.Response_Data::1      1211904                      
system.ruby.network.routers6.percent_links_utilized     0.156853                      
system.ruby.network.routers6.msg_count.Control::0        93032                      
system.ruby.network.routers6.msg_count.Request_Control::2         7147                      
system.ruby.network.routers6.msg_count.Response_Data::1        93076                      
system.ruby.network.routers6.msg_count.Response_Control::1        60652                      
system.ruby.network.routers6.msg_count.Response_Control::2        65541                      
system.ruby.network.routers6.msg_count.Writeback_Data::0        33928                      
system.ruby.network.routers6.msg_count.Writeback_Control::0        19627                      
system.ruby.network.routers6.msg_bytes.Control::0       744256                      
system.ruby.network.routers6.msg_bytes.Request_Control::2        57176                      
system.ruby.network.routers6.msg_bytes.Response_Data::1      6701472                      
system.ruby.network.routers6.msg_bytes.Response_Control::1       485216                      
system.ruby.network.routers6.msg_bytes.Response_Control::2       524328                      
system.ruby.network.routers6.msg_bytes.Writeback_Data::0      2442816                      
system.ruby.network.routers6.msg_bytes.Writeback_Control::0       157016                      
system.ruby.network.msg_count.Control          279096                      
system.ruby.network.msg_count.Request_Control        21441                      
system.ruby.network.msg_count.Response_Data       279228                      
system.ruby.network.msg_count.Response_Control       378579                      
system.ruby.network.msg_count.Writeback_Data       101784                      
system.ruby.network.msg_count.Writeback_Control        58881                      
system.ruby.network.msg_byte.Control          2232768                      
system.ruby.network.msg_byte.Request_Control       171528                      
system.ruby.network.msg_byte.Response_Data     20104416                      
system.ruby.network.msg_byte.Response_Control      3028632                      
system.ruby.network.msg_byte.Writeback_Data      7328448                      
system.ruby.network.msg_byte.Writeback_Control       471048                      
system.ruby.network.routers0.throttle0.link_utilization            0                      
system.ruby.network.routers0.throttle1.link_utilization            0                      
system.ruby.network.routers1.throttle0.link_utilization            0                      
system.ruby.network.routers1.throttle1.link_utilization            0                      
system.ruby.network.routers2.throttle0.link_utilization     0.109058                      
system.ruby.network.routers2.throttle0.msg_count.Request_Control::2         7103                      
system.ruby.network.routers2.throttle0.msg_count.Response_Data::1        15814                      
system.ruby.network.routers2.throttle0.msg_count.Response_Control::1        11535                      
system.ruby.network.routers2.throttle0.msg_bytes.Request_Control::2        56824                      
system.ruby.network.routers2.throttle0.msg_bytes.Response_Data::1      1138608                      
system.ruby.network.routers2.throttle0.msg_bytes.Response_Control::1        92280                      
system.ruby.network.routers2.throttle1.link_utilization     0.134665                      
system.ruby.network.routers2.throttle1.msg_count.Control::0        15837                      
system.ruby.network.routers2.throttle1.msg_count.Response_Data::1         7147                      
system.ruby.network.routers2.throttle1.msg_count.Response_Control::1         3527                      
system.ruby.network.routers2.throttle1.msg_count.Response_Control::2        15837                      
system.ruby.network.routers2.throttle1.msg_count.Writeback_Data::0        10968                      
system.ruby.network.routers2.throttle1.msg_count.Writeback_Control::0          521                      
system.ruby.network.routers2.throttle1.msg_bytes.Control::0       126696                      
system.ruby.network.routers2.throttle1.msg_bytes.Response_Data::1       514584                      
system.ruby.network.routers2.throttle1.msg_bytes.Response_Control::1        28216                      
system.ruby.network.routers2.throttle1.msg_bytes.Response_Control::2       126696                      
system.ruby.network.routers2.throttle1.msg_bytes.Writeback_Data::0       789696                      
system.ruby.network.routers2.throttle1.msg_bytes.Writeback_Control::0         4168                      
system.ruby.network.routers3.throttle0.link_utilization     0.379901                      
system.ruby.network.routers3.throttle0.msg_count.Request_Control::2           44                      
system.ruby.network.routers3.throttle0.msg_count.Response_Data::1        56839                      
system.ruby.network.routers3.throttle0.msg_count.Response_Control::1        49117                      
system.ruby.network.routers3.throttle0.msg_bytes.Request_Control::2          352                      
system.ruby.network.routers3.throttle0.msg_bytes.Response_Data::1      4092408                      
system.ruby.network.routers3.throttle0.msg_bytes.Response_Control::1       392936                      
system.ruby.network.routers3.throttle1.link_utilization     0.227790                      
system.ruby.network.routers3.throttle1.msg_count.Control::0        60363                      
system.ruby.network.routers3.throttle1.msg_count.Response_Data::1           41                      
system.ruby.network.routers3.throttle1.msg_count.Response_Control::1           23                      
system.ruby.network.routers3.throttle1.msg_count.Response_Control::2        49704                      
system.ruby.network.routers3.throttle1.msg_count.Writeback_Data::0        22960                      
system.ruby.network.routers3.throttle1.msg_count.Writeback_Control::0        19106                      
system.ruby.network.routers3.throttle1.msg_bytes.Control::0       482904                      
system.ruby.network.routers3.throttle1.msg_bytes.Response_Data::1         2952                      
system.ruby.network.routers3.throttle1.msg_bytes.Response_Control::1          184                      
system.ruby.network.routers3.throttle1.msg_bytes.Response_Control::2       397632                      
system.ruby.network.routers3.throttle1.msg_bytes.Writeback_Data::0      1653120                      
system.ruby.network.routers3.throttle1.msg_bytes.Writeback_Control::0       152848                      
system.ruby.network.routers4.throttle0.link_utilization     0.440754                      
system.ruby.network.routers4.throttle0.msg_count.Control::0        76200                      
system.ruby.network.routers4.throttle0.msg_count.Response_Data::1        20423                      
system.ruby.network.routers4.throttle0.msg_count.Response_Control::2        65541                      
system.ruby.network.routers4.throttle0.msg_count.Writeback_Data::0        33928                      
system.ruby.network.routers4.throttle0.msg_count.Writeback_Control::0        19627                      
system.ruby.network.routers4.throttle0.msg_bytes.Control::0       609600                      
system.ruby.network.routers4.throttle0.msg_bytes.Response_Data::1      1470456                      
system.ruby.network.routers4.throttle0.msg_bytes.Response_Control::2       524328                      
system.ruby.network.routers4.throttle0.msg_bytes.Writeback_Data::0      2442816                      
system.ruby.network.routers4.throttle0.msg_bytes.Writeback_Control::0       157016                      
system.ruby.network.routers4.throttle1.link_utilization     0.476025                      
system.ruby.network.routers4.throttle1.msg_count.Control::0        16832                      
system.ruby.network.routers4.throttle1.msg_count.Request_Control::2         7147                      
system.ruby.network.routers4.throttle1.msg_count.Response_Data::1        69056                      
system.ruby.network.routers4.throttle1.msg_count.Response_Control::1        57102                      
system.ruby.network.routers4.throttle1.msg_bytes.Control::0       134656                      
system.ruby.network.routers4.throttle1.msg_bytes.Request_Control::2        57176                      
system.ruby.network.routers4.throttle1.msg_bytes.Response_Data::1      4972032                      
system.ruby.network.routers4.throttle1.msg_bytes.Response_Control::1       456816                      
system.ruby.network.routers5.throttle0.link_utilization     0.011404                      
system.ruby.network.routers5.throttle0.msg_count.Control::0        16832                      
system.ruby.network.routers5.throttle0.msg_bytes.Control::0       134656                      
system.ruby.network.routers5.throttle1.link_utilization     0.102638                      
system.ruby.network.routers5.throttle1.msg_count.Response_Data::1        16832                      
system.ruby.network.routers5.throttle1.msg_bytes.Response_Data::1      1211904                      
system.ruby.network.routers6.throttle0.link_utilization            0                      
system.ruby.network.routers6.throttle1.link_utilization            0                      
system.ruby.network.routers6.throttle2.link_utilization     0.109058                      
system.ruby.network.routers6.throttle2.msg_count.Request_Control::2         7103                      
system.ruby.network.routers6.throttle2.msg_count.Response_Data::1        15814                      
system.ruby.network.routers6.throttle2.msg_count.Response_Control::1        11535                      
system.ruby.network.routers6.throttle2.msg_bytes.Request_Control::2        56824                      
system.ruby.network.routers6.throttle2.msg_bytes.Response_Data::1      1138608                      
system.ruby.network.routers6.throttle2.msg_bytes.Response_Control::1        92280                      
system.ruby.network.routers6.throttle3.link_utilization     0.379901                      
system.ruby.network.routers6.throttle3.msg_count.Request_Control::2           44                      
system.ruby.network.routers6.throttle3.msg_count.Response_Data::1        56839                      
system.ruby.network.routers6.throttle3.msg_count.Response_Control::1        49117                      
system.ruby.network.routers6.throttle3.msg_bytes.Request_Control::2          352                      
system.ruby.network.routers6.throttle3.msg_bytes.Response_Data::1      4092408                      
system.ruby.network.routers6.throttle3.msg_bytes.Response_Control::1       392936                      
system.ruby.network.routers6.throttle4.link_utilization     0.440754                      
system.ruby.network.routers6.throttle4.msg_count.Control::0        76200                      
system.ruby.network.routers6.throttle4.msg_count.Response_Data::1        20423                      
system.ruby.network.routers6.throttle4.msg_count.Response_Control::2        65541                      
system.ruby.network.routers6.throttle4.msg_count.Writeback_Data::0        33928                      
system.ruby.network.routers6.throttle4.msg_count.Writeback_Control::0        19627                      
system.ruby.network.routers6.throttle4.msg_bytes.Control::0       609600                      
system.ruby.network.routers6.throttle4.msg_bytes.Response_Data::1      1470456                      
system.ruby.network.routers6.throttle4.msg_bytes.Response_Control::2       524328                      
system.ruby.network.routers6.throttle4.msg_bytes.Writeback_Data::0      2442816                      
system.ruby.network.routers6.throttle4.msg_bytes.Writeback_Control::0       157016                      
system.ruby.network.routers6.throttle5.link_utilization     0.011404                      
system.ruby.network.routers6.throttle5.msg_count.Control::0        16832                      
system.ruby.network.routers6.throttle5.msg_bytes.Control::0       134656                      
system.ruby.delayVCHist.vnet_0::bucket_size            2                       # delay histogram for vnet_0
system.ruby.delayVCHist.vnet_0::max_bucket           19                       # delay histogram for vnet_0
system.ruby.delayVCHist.vnet_0::samples        195296                       # delay histogram for vnet_0
system.ruby.delayVCHist.vnet_0::mean         1.390494                       # delay histogram for vnet_0
system.ruby.delayVCHist.vnet_0::stdev        3.031754                       # delay histogram for vnet_0
system.ruby.delayVCHist.vnet_0           |      161335     82.61%     82.61% |          27      0.01%     82.62% |           1      0.00%     82.62% |           0      0.00%     82.62% |       33927     17.37%    100.00% |           1      0.00%    100.00% |           0      0.00%    100.00% |           4      0.00%    100.00% |           0      0.00%    100.00% |           1      0.00%    100.00% # delay histogram for vnet_0
system.ruby.delayVCHist.vnet_0::total          195296                       # delay histogram for vnet_0
system.ruby.delayVCHist.vnet_1::bucket_size            1                       # delay histogram for vnet_1
system.ruby.delayVCHist.vnet_1::max_bucket            9                       # delay histogram for vnet_1
system.ruby.delayVCHist.vnet_1::samples        269332                       # delay histogram for vnet_1
system.ruby.delayVCHist.vnet_1::mean         0.106664                       # delay histogram for vnet_1
system.ruby.delayVCHist.vnet_1::stdev        0.917571                       # delay histogram for vnet_1
system.ruby.delayVCHist.vnet_1           |      265741     98.67%     98.67% |           0      0.00%     98.67% |           0      0.00%     98.67% |           0      0.00%     98.67% |           0      0.00%     98.67% |           0      0.00%     98.67% |           0      0.00%     98.67% |           0      0.00%     98.67% |        3591      1.33%    100.00% |           0      0.00%    100.00% # delay histogram for vnet_1
system.ruby.delayVCHist.vnet_1::total          269332                       # delay histogram for vnet_1
system.ruby.delayVCHist.vnet_2::bucket_size            2                       # delay histogram for vnet_2
system.ruby.delayVCHist.vnet_2::max_bucket           19                       # delay histogram for vnet_2
system.ruby.delayVCHist.vnet_2::samples         19154                       # delay histogram for vnet_2
system.ruby.delayVCHist.vnet_2::mean         0.136786                       # delay histogram for vnet_2
system.ruby.delayVCHist.vnet_2::stdev        0.820418                       # delay histogram for vnet_2
system.ruby.delayVCHist.vnet_2           |       18632     97.27%     97.27% |           0      0.00%     97.27% |         521      2.72%     99.99% |           0      0.00%     99.99% |           0      0.00%     99.99% |           0      0.00%     99.99% |           0      0.00%     99.99% |           1      0.01%    100.00% |           0      0.00%    100.00% |           0      0.00%    100.00% # delay histogram for vnet_2
system.ruby.delayVCHist.vnet_2::total           19154                       # delay histogram for vnet_2
system.ruby.LD.latency_hist::bucket_size          128                      
system.ruby.LD.latency_hist::max_bucket          1279                      
system.ruby.LD.latency_hist::samples          8260881                      
system.ruby.LD.latency_hist::mean            1.193380                      
system.ruby.LD.latency_hist::gmean           1.029765                      
system.ruby.LD.latency_hist::stdev           2.651479                      
system.ruby.LD.latency_hist              |     8260678    100.00%    100.00% |         179      0.00%    100.00% |           0      0.00%    100.00% |           4      0.00%    100.00% |          11      0.00%    100.00% |           9      0.00%    100.00% |           0      0.00%    100.00% |           0      0.00%    100.00% |           0      0.00%    100.00% |           0      0.00%    100.00%
system.ruby.LD.latency_hist::total            8260881                      
system.ruby.LD.hit_latency_hist::bucket_size          128                      
system.ruby.LD.hit_latency_hist::max_bucket         1279                      
system.ruby.LD.hit_latency_hist::samples      8260881                      
system.ruby.LD.hit_latency_hist::mean        1.193380                      
system.ruby.LD.hit_latency_hist::gmean       1.029765                      
system.ruby.LD.hit_latency_hist::stdev       2.651479                      
system.ruby.LD.hit_latency_hist          |     8260678    100.00%    100.00% |         179      0.00%    100.00% |           0      0.00%    100.00% |           4      0.00%    100.00% |          11      0.00%    100.00% |           9      0.00%    100.00% |           0      0.00%    100.00% |           0      0.00%    100.00% |           0      0.00%    100.00% |           0      0.00%    100.00%
system.ruby.LD.hit_latency_hist::total        8260881                      
system.ruby.ST.latency_hist::bucket_size          128                      
system.ruby.ST.latency_hist::max_bucket          1279                      
system.ruby.ST.latency_hist::samples          4044433                      
system.ruby.ST.latency_hist::mean            1.512969                      
system.ruby.ST.latency_hist::gmean           1.020818                      
system.ruby.ST.latency_hist::stdev           9.549747                      
system.ruby.ST.latency_hist              |     4040941     99.91%     99.91% |        3027      0.07%     99.99% |          16      0.00%     99.99% |          36      0.00%     99.99% |         356      0.01%    100.00% |          57      0.00%    100.00% |           0      0.00%    100.00% |           0      0.00%    100.00% |           0      0.00%    100.00% |           0      0.00%    100.00%
system.ruby.ST.latency_hist::total            4044433                      
system.ruby.ST.hit_latency_hist::bucket_size          128                      
system.ruby.ST.hit_latency_hist::max_bucket         1279                      
system.ruby.ST.hit_latency_hist::samples      4044433                      
system.ruby.ST.hit_latency_hist::mean        1.512969                      
system.ruby.ST.hit_latency_hist::gmean       1.020818                      
system.ruby.ST.hit_latency_hist::stdev       9.549747                      
system.ruby.ST.hit_latency_hist          |     4040941     99.91%     99.91% |        3027      0.07%     99.99% |          16      0.00%     99.99% |          36      0.00%     99.99% |         356      0.01%    100.00% |          57      0.00%    100.00% |           0      0.00%    100.00% |           0      0.00%    100.00% |           0      0.00%    100.00% |           0      0.00%    100.00%
system.ruby.ST.hit_latency_hist::total        4044433                      
system.ruby.IFETCH.latency_hist::bucket_size          128                      
system.ruby.IFETCH.latency_hist::max_bucket         1279                      
system.ruby.IFETCH.latency_hist::samples     33590601                      
system.ruby.IFETCH.latency_hist::mean        1.004975                      
system.ruby.IFETCH.latency_hist::gmean       1.000257                      
system.ruby.IFETCH.latency_hist::stdev       0.838450                      
system.ruby.IFETCH.latency_hist          |    33590324    100.00%    100.00% |         262      0.00%    100.00% |           1      0.00%    100.00% |           1      0.00%    100.00% |           8      0.00%    100.00% |           5      0.00%    100.00% |           0      0.00%    100.00% |           0      0.00%    100.00% |           0      0.00%    100.00% |           0      0.00%    100.00%
system.ruby.IFETCH.latency_hist::total       33590601                      
system.ruby.IFETCH.hit_latency_hist::bucket_size          128                      
system.ruby.IFETCH.hit_latency_hist::max_bucket         1279                      
system.ruby.IFETCH.hit_latency_hist::samples     33590601                      
system.ruby.IFETCH.hit_latency_hist::mean     1.004975                      
system.ruby.IFETCH.hit_latency_hist::gmean     1.000257                      
system.ruby.IFETCH.hit_latency_hist::stdev     0.838450                      
system.ruby.IFETCH.hit_latency_hist      |    33590324    100.00%    100.00% |         262      0.00%    100.00% |           1      0.00%    100.00% |           1      0.00%    100.00% |           8      0.00%    100.00% |           5      0.00%    100.00% |           0      0.00%    100.00% |           0      0.00%    100.00% |           0      0.00%    100.00% |           0      0.00%    100.00%
system.ruby.IFETCH.hit_latency_hist::total     33590601                      
system.ruby.RMW_Read.latency_hist::bucket_size           16                      
system.ruby.RMW_Read.latency_hist::max_bucket          159                      
system.ruby.RMW_Read.latency_hist::samples          687                      
system.ruby.RMW_Read.latency_hist::mean      1.949054                      
system.ruby.RMW_Read.latency_hist::gmean     1.126297                      
system.ruby.RMW_Read.latency_hist::stdev     6.819114                      
system.ruby.RMW_Read.latency_hist        |         668     97.23%     97.23% |          13      1.89%     99.13% |           5      0.73%     99.85% |           0      0.00%     99.85% |           0      0.00%     99.85% |           0      0.00%     99.85% |           0      0.00%     99.85% |           0      0.00%     99.85% |           1      0.15%    100.00% |           0      0.00%    100.00%
system.ruby.RMW_Read.latency_hist::total          687                      
system.ruby.RMW_Read.hit_latency_hist::bucket_size           16                      
system.ruby.RMW_Read.hit_latency_hist::max_bucket          159                      
system.ruby.RMW_Read.hit_latency_hist::samples          687                      
system.ruby.RMW_Read.hit_latency_hist::mean     1.949054                      
system.ruby.RMW_Read.hit_latency_hist::gmean     1.126297                      
system.ruby.RMW_Read.hit_latency_hist::stdev     6.819114                      
system.ruby.RMW_Read.hit_latency_hist    |         668     97.23%     97.23% |          13      1.89%     99.13% |           5      0.73%     99.85% |           0      0.00%     99.85% |           0      0.00%     99.85% |           0      0.00%     99.85% |           0      0.00%     99.85% |           0      0.00%     99.85% |           1      0.15%    100.00% |           0      0.00%    100.00%
system.ruby.RMW_Read.hit_latency_hist::total          687                      
system.ruby.Locked_RMW_Read.latency_hist::bucket_size           16                      
system.ruby.Locked_RMW_Read.latency_hist::max_bucket          159                      
system.ruby.Locked_RMW_Read.latency_hist::samples       449120                      
system.ruby.Locked_RMW_Read.latency_hist::mean     1.001372                      
system.ruby.Locked_RMW_Read.latency_hist::gmean     1.000133                      
system.ruby.Locked_RMW_Read.latency_hist::stdev     0.305415                      
system.ruby.Locked_RMW_Read.latency_hist |      449104    100.00%    100.00% |          11      0.00%    100.00% |           3      0.00%    100.00% |           0      0.00%    100.00% |           0      0.00%    100.00% |           0      0.00%    100.00% |           0      0.00%    100.00% |           1      0.00%    100.00% |           1      0.00%    100.00% |           0      0.00%    100.00%
system.ruby.Locked_RMW_Read.latency_hist::total       449120                      
system.ruby.Locked_RMW_Read.hit_latency_hist::bucket_size           16                      
system.ruby.Locked_RMW_Read.hit_latency_hist::max_bucket          159                      
system.ruby.Locked_RMW_Read.hit_latency_hist::samples       449120                      
system.ruby.Locked_RMW_Read.hit_latency_hist::mean     1.001372                      
system.ruby.Locked_RMW_Read.hit_latency_hist::gmean     1.000133                      
system.ruby.Locked_RMW_Read.hit_latency_hist::stdev     0.305415                      
system.ruby.Locked_RMW_Read.hit_latency_hist |      449104    100.00%    100.00% |          11      0.00%    100.00% |           3      0.00%    100.00% |           0      0.00%    100.00% |           0      0.00%    100.00% |           0      0.00%    100.00% |           0      0.00%    100.00% |           1      0.00%    100.00% |           1      0.00%    100.00% |           0      0.00%    100.00%
system.ruby.Locked_RMW_Read.hit_latency_hist::total       449120                      
system.ruby.Locked_RMW_Write.latency_hist::bucket_size            1                      
system.ruby.Locked_RMW_Write.latency_hist::max_bucket            9                      
system.ruby.Locked_RMW_Write.latency_hist::samples       449120                      
system.ruby.Locked_RMW_Write.latency_hist::mean            1                      
system.ruby.Locked_RMW_Write.latency_hist::gmean            1                      
[...]
system.ruby.L0Cache_Controller.Store     |     4027357     81.47%     81.47% |      916003     18.53%    100.00%
system.ruby.L0Cache_Controller.Store::total      4943360                      
system.ruby.L0Cache_Controller.Inv       |        1050      8.74%      8.74% |       10957     91.26%    100.00%
system.ruby.L0Cache_Controller.Inv::total        12007                      
system.ruby.L0Cache_Controller.L0_Replacement |       16227     14.81%     14.81% |       93327     85.19%    100.00%
system.ruby.L0Cache_Controller.L0_Replacement::total       109554                      
system.ruby.L0Cache_Controller.Data      |          54      0.37%      0.37% |       14374     99.63%    100.00%
system.ruby.L0Cache_Controller.Data::total        14428                      
system.ruby.L0Cache_Controller.Data_Exclusive |       17850     17.64%     17.64% |       83326     82.36%    100.00%
system.ruby.L0Cache_Controller.Data_Exclusive::total       101176                      
system.ruby.L0Cache_Controller.NP.Load   |        1069      1.13%      1.13% |       93210     98.87%    100.00%
system.ruby.L0Cache_Controller.NP.Load::total        94279                      
system.ruby.L0Cache_Controller.NP.Ifetch |        2311     90.84%     90.84% |         233      9.16%    100.00%
system.ruby.L0Cache_Controller.NP.Ifetch::total         2544                      
system.ruby.L0Cache_Controller.NP.Store  |       14501     95.17%     95.17% |         736      4.83%    100.00%
system.ruby.L0Cache_Controller.NP.Store::total        15237                      
system.ruby.L0Cache_Controller.NP.Inv    |           2      0.02%      0.02% |       10624     99.98%    100.00%
system.ruby.L0Cache_Controller.NP.Inv::total        10626                      
system.ruby.L0Cache_Controller.S.Load    |     1310031     88.98%     88.98% |      162190     11.02%    100.00%
system.ruby.L0Cache_Controller.S.Load::total      1472221                      
system.ruby.L0Cache_Controller.S.Ifetch  |         168     11.17%     11.17% |        1336     88.83%    100.00%
system.ruby.L0Cache_Controller.S.Ifetch::total         1504                      
system.ruby.L0Cache_Controller.S.Store   |          23      0.65%      0.65% |        3521     99.35%    100.00%
system.ruby.L0Cache_Controller.S.Store::total         3544                      
system.ruby.L0Cache_Controller.S.Inv     |           7     10.77%     10.77% |          58     89.23%    100.00%
system.ruby.L0Cache_Controller.S.Inv::total           65                      
system.ruby.L0Cache_Controller.S.L0_Replacement |          18      0.17%      0.17% |       10786     99.83%    100.00%
system.ruby.L0Cache_Controller.S.L0_Replacement::total        10804                      
system.ruby.L0Cache_Controller.E.Load    |      436758     23.65%     23.65% |     1409701     76.35%    100.00%
system.ruby.L0Cache_Controller.E.Load::total      1846459                      
system.ruby.L0Cache_Controller.E.Ifetch  |    26015693     77.46%     77.46% |     7570860     22.54%    100.00%
system.ruby.L0Cache_Controller.E.Ifetch::total     33586553                      
system.ruby.L0Cache_Controller.E.Store   |         596      1.85%      1.85% |       31551     98.15%    100.00%
system.ruby.L0Cache_Controller.E.Store::total        32147                      
system.ruby.L0Cache_Controller.E.Inv     |         560     69.31%     69.31% |         248     30.69%    100.00%
system.ruby.L0Cache_Controller.E.Inv::total          808                      
system.ruby.L0Cache_Controller.E.L0_Replacement |        1684      3.44%      3.44% |       47242     96.56%    100.00%
system.ruby.L0Cache_Controller.E.L0_Replacement::total        48926                      
system.ruby.L0Cache_Controller.M.Load    |     4045270     83.44%     83.44% |      802652     16.56%    100.00%
system.ruby.L0Cache_Controller.M.Load::total      4847922                      
system.ruby.L0Cache_Controller.M.Store   |     4012237     82.01%     82.01% |      880195     17.99%    100.00%
system.ruby.L0Cache_Controller.M.Store::total      4892432                      
system.ruby.L0Cache_Controller.M.Inv     |         481     94.69%     94.69% |          27      5.31%    100.00%
system.ruby.L0Cache_Controller.M.Inv::total          508                      
system.ruby.L0Cache_Controller.M.L0_Replacement |       14525     29.15%     29.15% |       35299     70.85%    100.00%
system.ruby.L0Cache_Controller.M.L0_Replacement::total        49824                      
system.ruby.L0Cache_Controller.IS.Data   |          54      0.37%      0.37% |       14374     99.63%    100.00%
system.ruby.L0Cache_Controller.IS.Data::total        14428                      
system.ruby.L0Cache_Controller.IS.Data_Exclusive |        3326      4.04%      4.04% |       79069     95.96%    100.00%
system.ruby.L0Cache_Controller.IS.Data_Exclusive::total        82395                      
system.ruby.L0Cache_Controller.IM.Data_Exclusive |       14501     95.17%     95.17% |         736      4.83%    100.00%
system.ruby.L0Cache_Controller.IM.Data_Exclusive::total        15237                      
system.ruby.L0Cache_Controller.SM.Data_Exclusive |          23      0.65%      0.65% |        3521     99.35%    100.00%
system.ruby.L0Cache_Controller.SM.Data_Exclusive::total         3544                      
system.ruby.L1Cache_Controller.Load      |        3380      3.49%      3.49% |       93443     96.51%    100.00%
system.ruby.L1Cache_Controller.Load::total        96823                      
system.ruby.L1Cache_Controller.Store     |       14524     77.33%     77.33% |        4257     22.67%    100.00%
system.ruby.L1Cache_Controller.Store::total        18781                      
system.ruby.L1Cache_Controller.WriteBack |       16209     16.41%     16.41% |       82541     83.59%    100.00%
system.ruby.L1Cache_Controller.WriteBack::total        98750                      
system.ruby.L1Cache_Controller.L0_DataAck |         481     94.69%     94.69% |          27      5.31%    100.00%
system.ruby.L1Cache_Controller.L0_DataAck::total          508                      
system.ruby.L1Cache_Controller.Inv       |        3527     99.35%     99.35% |          23      0.65%    100.00%
system.ruby.L1Cache_Controller.Inv::total         3550                      
system.ruby.L1Cache_Controller.L0_Invalidate_Own |        1112      4.84%      4.84% |       21856     95.16%    100.00%
system.ruby.L1Cache_Controller.L0_Invalidate_Own::total        22968                      
system.ruby.L1Cache_Controller.L0_Invalidate_Else |         988     94.46%     94.46% |          58      5.54%    100.00%
system.ruby.L1Cache_Controller.L0_Invalidate_Else::total         1046                      
system.ruby.L1Cache_Controller.L1_Replacement |       11551     17.97%     17.97% |       52741     82.03%    100.00%
system.ruby.L1Cache_Controller.L1_Replacement::total        64292                      
system.ruby.L1Cache_Controller.Fwd_GETX  |           5     83.33%     83.33% |           1     16.67%    100.00%
system.ruby.L1Cache_Controller.Fwd_GETX::total            6                      
system.ruby.L1Cache_Controller.Fwd_GETS  |        3571     99.44%     99.44% |          20      0.56%    100.00%
system.ruby.L1Cache_Controller.Fwd_GETS::total         3591                      
system.ruby.L1Cache_Controller.Data      |           0      0.00%      0.00% |           3    100.00%    100.00%
system.ruby.L1Cache_Controller.Data::total            3                      
system.ruby.L1Cache_Controller.Data_Exclusive |        1808      4.13%      4.13% |       41917     95.87%    100.00%
system.ruby.L1Cache_Controller.Data_Exclusive::total        43725                      
system.ruby.L1Cache_Controller.DataS_fromL1 |          20      0.56%      0.56% |        3571     99.44%    100.00%
system.ruby.L1Cache_Controller.DataS_fromL1::total         3591                      
system.ruby.L1Cache_Controller.Data_all_Acks |       13986     55.21%     55.21% |       11348     44.79%    100.00%
system.ruby.L1Cache_Controller.Data_all_Acks::total        25334                      
system.ruby.L1Cache_Controller.L0_Ack    |         569      4.95%      4.95% |       10930     95.05%    100.00%
system.ruby.L1Cache_Controller.L0_Ack::total        11499                      
system.ruby.L1Cache_Controller.Ack       |          23      0.65%      0.65% |        3524     99.35%    100.00%
system.ruby.L1Cache_Controller.Ack::total         3547                      
system.ruby.L1Cache_Controller.Ack_all   |          23      0.65%      0.65% |        3527     99.35%    100.00%
system.ruby.L1Cache_Controller.Ack_all::total         3550                      
system.ruby.L1Cache_Controller.WB_Ack    |       11489     21.45%     21.45% |       42066     78.55%    100.00%
system.ruby.L1Cache_Controller.WB_Ack::total        53555                      
system.ruby.L1Cache_Controller.NP.Load   |        1823      3.14%      3.14% |       56147     96.86%    100.00%
system.ruby.L1Cache_Controller.NP.Load::total        57970                      
system.ruby.L1Cache_Controller.NP.Store  |       13986     95.29%     95.29% |         692      4.71%    100.00%
system.ruby.L1Cache_Controller.NP.Store::total        14678                      
system.ruby.L1Cache_Controller.NP.Inv    |          62     92.54%     92.54% |           5      7.46%    100.00%
system.ruby.L1Cache_Controller.NP.Inv::total           67                      
system.ruby.L1Cache_Controller.I.Load    |           5    100.00%    100.00% |           0      0.00%    100.00%
system.ruby.L1Cache_Controller.I.Load::total            5                      
system.ruby.L1Cache_Controller.S.Load    |           9      6.08%      6.08% |         139     93.92%    100.00%
system.ruby.L1Cache_Controller.S.Load::total          148                      
system.ruby.L1Cache_Controller.S.Store   |          23      0.65%      0.65% |        3523     99.35%    100.00%
system.ruby.L1Cache_Controller.S.Store::total         3546                      
system.ruby.L1Cache_Controller.S.L0_Invalidate_Own |           0      0.00%      0.00% |       10673    100.00%    100.00%
system.ruby.L1Cache_Controller.S.L0_Invalidate_Own::total        10673                      
system.ruby.L1Cache_Controller.S.L0_Invalidate_Else |           9     50.00%     50.00% |           9     50.00%    100.00%
system.ruby.L1Cache_Controller.S.L0_Invalidate_Else::total           18                      
system.ruby.L1Cache_Controller.SS.Load   |          25     83.33%     83.33% |           5     16.67%    100.00%
system.ruby.L1Cache_Controller.SS.Load::total           30                      
system.ruby.L1Cache_Controller.SS.Store  |           0      0.00%      0.00% |           1    100.00%    100.00%
system.ruby.L1Cache_Controller.SS.Store::total            1                      
system.ruby.L1Cache_Controller.SS.Inv    |        3465     99.48%     99.48% |          18      0.52%    100.00%
system.ruby.L1Cache_Controller.SS.Inv::total         3483                      
system.ruby.L1Cache_Controller.SS.L1_Replacement |          62      0.58%      0.58% |       10675     99.42%    100.00%
system.ruby.L1Cache_Controller.SS.L1_Replacement::total        10737                      
system.ruby.L1Cache_Controller.E.WriteBack |         852      2.00%      2.00% |       41725     98.00%    100.00%
system.ruby.L1Cache_Controller.E.WriteBack::total        42577                      
system.ruby.L1Cache_Controller.E.L0_Invalidate_Own |         511     74.93%     74.93% |         171     25.07%    100.00%
system.ruby.L1Cache_Controller.E.L0_Invalidate_Own::total          682                      
system.ruby.L1Cache_Controller.E.L0_Invalidate_Else |          18     85.71%     85.71% |           3     14.29%    100.00%
system.ruby.L1Cache_Controller.E.L0_Invalidate_Else::total           21                      
system.ruby.L1Cache_Controller.EE.L1_Replacement |         502     74.70%     74.70% |         170     25.30%    100.00%
system.ruby.L1Cache_Controller.EE.L1_Replacement::total          672                      
system.ruby.L1Cache_Controller.EE.Fwd_GETS |          16     84.21%     84.21% |           3     15.79%    100.00%
system.ruby.L1Cache_Controller.EE.Fwd_GETS::total           19                      
system.ruby.L1Cache_Controller.M.WriteBack |       15357     27.34%     27.34% |       40816     72.66%    100.00%
system.ruby.L1Cache_Controller.M.WriteBack::total        56173                      
system.ruby.L1Cache_Controller.M.L0_Invalidate_Own |          45     34.88%     34.88% |          84     65.12%    100.00%
system.ruby.L1Cache_Controller.M.L0_Invalidate_Own::total          129                      
system.ruby.L1Cache_Controller.M.L0_Invalidate_Else |         467     96.49%     96.49% |          17      3.51%    100.00%
system.ruby.L1Cache_Controller.M.L0_Invalidate_Else::total          484                      
system.ruby.L1Cache_Controller.MM.Load   |        1518      3.93%      3.93% |       37152     96.07%    100.00%
system.ruby.L1Cache_Controller.MM.Load::total        38670                      
system.ruby.L1Cache_Controller.MM.Store  |         515     92.63%     92.63% |          41      7.37%    100.00%
system.ruby.L1Cache_Controller.MM.Store::total          556                      
system.ruby.L1Cache_Controller.MM.L1_Replacement |       10987     20.78%     20.78% |       41896     79.22%    100.00%
system.ruby.L1Cache_Controller.MM.L1_Replacement::total        52883                      
system.ruby.L1Cache_Controller.MM.Fwd_GETX |           5     83.33%     83.33% |           1     16.67%    100.00%
system.ruby.L1Cache_Controller.MM.Fwd_GETX::total            6                      
system.ruby.L1Cache_Controller.MM.Fwd_GETS |        3555     99.52%     99.52% |          17      0.48%    100.00%
system.ruby.L1Cache_Controller.MM.Fwd_GETS::total         3572                      
system.ruby.L1Cache_Controller.IS.Data_Exclusive |        1808      4.13%      4.13% |       41917     95.87%    100.00%
system.ruby.L1Cache_Controller.IS.Data_Exclusive::total        43725                      
system.ruby.L1Cache_Controller.IS.DataS_fromL1 |          20      0.56%      0.56% |        3571     99.44%    100.00%
system.ruby.L1Cache_Controller.IS.DataS_fromL1::total         3591                      
system.ruby.L1Cache_Controller.IS.Data_all_Acks |           0      0.00%      0.00% |       10659    100.00%    100.00%
system.ruby.L1Cache_Controller.IS.Data_all_Acks::total        10659                      
system.ruby.L1Cache_Controller.IM.Data   |           0      0.00%      0.00% |           3    100.00%    100.00%
system.ruby.L1Cache_Controller.IM.Data::total            3                      
system.ruby.L1Cache_Controller.IM.Data_all_Acks |       13986     95.30%     95.30% |         689      4.70%    100.00%
system.ruby.L1Cache_Controller.IM.Data_all_Acks::total        14675                      
system.ruby.L1Cache_Controller.SM.Ack    |          23      0.65%      0.65% |        3524     99.35%    100.00%
system.ruby.L1Cache_Controller.SM.Ack::total         3547                      
system.ruby.L1Cache_Controller.SM.Ack_all |          23      0.65%      0.65% |        3527     99.35%    100.00%
system.ruby.L1Cache_Controller.SM.Ack_all::total         3550                      
system.ruby.L1Cache_Controller.M_I.WB_Ack |       11489     21.45%     21.45% |       42066     78.55%    100.00%
system.ruby.L1Cache_Controller.M_I.WB_Ack::total        53555                      
system.ruby.L1Cache_Controller.S_IL0.L0_Invalidate_Own |           0      0.00%      0.00% |       10673    100.00%    100.00%
system.ruby.L1Cache_Controller.S_IL0.L0_Invalidate_Own::total        10673                      
system.ruby.L1Cache_Controller.S_IL0.L0_Invalidate_Else |           9     50.00%     50.00% |           9     50.00%    100.00%
system.ruby.L1Cache_Controller.S_IL0.L0_Invalidate_Else::total           18                      
system.ruby.L1Cache_Controller.S_IL0.L0_Ack |           9      0.08%      0.08% |       10682     99.92%    100.00%
system.ruby.L1Cache_Controller.S_IL0.L0_Ack::total        10691                      
system.ruby.L1Cache_Controller.E_IL0.L0_DataAck |          11     91.67%     91.67% |           1      8.33%    100.00%
system.ruby.L1Cache_Controller.E_IL0.L0_DataAck::total           12                      
system.ruby.L1Cache_Controller.E_IL0.L0_Invalidate_Own |         511     74.93%     74.93% |         171     25.07%    100.00%
system.ruby.L1Cache_Controller.E_IL0.L0_Invalidate_Own::total          682                      
system.ruby.L1Cache_Controller.E_IL0.L0_Invalidate_Else |          18     85.71%     85.71% |           3     14.29%    100.00%
system.ruby.L1Cache_Controller.E_IL0.L0_Invalidate_Else::total           21                      
system.ruby.L1Cache_Controller.E_IL0.L0_Ack |         518     74.96%     74.96% |         173     25.04%    100.00%
system.ruby.L1Cache_Controller.E_IL0.L0_Ack::total          691                      
system.ruby.L1Cache_Controller.M_IL0.L0_DataAck |         470     94.76%     94.76% |          26      5.24%    100.00%
system.ruby.L1Cache_Controller.M_IL0.L0_DataAck::total          496                      
system.ruby.L1Cache_Controller.M_IL0.L0_Invalidate_Own |          45     34.88%     34.88% |          84     65.12%    100.00%
system.ruby.L1Cache_Controller.M_IL0.L0_Invalidate_Own::total          129                      
system.ruby.L1Cache_Controller.M_IL0.L0_Invalidate_Else |         467     96.49%     96.49% |          17      3.51%    100.00%
system.ruby.L1Cache_Controller.M_IL0.L0_Invalidate_Else::total          484                      
system.ruby.L1Cache_Controller.M_IL0.L0_Ack |          42     35.90%     35.90% |          75     64.10%    100.00%
system.ruby.L1Cache_Controller.M_IL0.L0_Ack::total          117                      
system.ruby.L2Cache_Controller.L1_GETS          57977      0.00%      0.00%
system.ruby.L2Cache_Controller.L1_GETX          14678      0.00%      0.00%
system.ruby.L2Cache_Controller.L1_UPGRADE         3547      0.00%      0.00%
system.ruby.L2Cache_Controller.L1_PUTX          53555      0.00%      0.00%
system.ruby.L2Cache_Controller.Mem_Data         16832      0.00%      0.00%
system.ruby.L2Cache_Controller.WB_Data           3591      0.00%      0.00%
system.ruby.L2Cache_Controller.Unblock           3591      0.00%      0.00%
system.ruby.L2Cache_Controller.Exclusive_Unblock        61950      0.00%      0.00%
system.ruby.L2Cache_Controller.NP.L1_GETS         2541      0.00%      0.00%
system.ruby.L2Cache_Controller.NP.L1_GETX        14291      0.00%      0.00%
system.ruby.L2Cache_Controller.SS.L1_GETS        10659      0.00%      0.00%
system.ruby.L2Cache_Controller.SS.L1_GETX            3      0.00%      0.00%
system.ruby.L2Cache_Controller.SS.L1_UPGRADE         3547      0.00%      0.00%
system.ruby.L2Cache_Controller.M.L1_GETS        41184      0.00%      0.00%
system.ruby.L2Cache_Controller.M.L1_GETX          378      0.00%      0.00%
system.ruby.L2Cache_Controller.MT.L1_GETS         3591      0.00%      0.00%
system.ruby.L2Cache_Controller.MT.L1_GETX            6      0.00%      0.00%
system.ruby.L2Cache_Controller.MT.L1_PUTX        53555      0.00%      0.00%
system.ruby.L2Cache_Controller.ISS.Mem_Data         2541      0.00%      0.00%
system.ruby.L2Cache_Controller.IM.Mem_Data        14291      0.00%      0.00%
system.ruby.L2Cache_Controller.SS_MB.L1_GETS            2      0.00%      0.00%
system.ruby.L2Cache_Controller.SS_MB.Exclusive_Unblock         3550      0.00%      0.00%
system.ruby.L2Cache_Controller.MT_MB.Exclusive_Unblock        58400      0.00%      0.00%
system.ruby.L2Cache_Controller.MT_IIB.WB_Data         3591      0.00%      0.00%
system.ruby.L2Cache_Controller.MT_SB.Unblock         3591      0.00%      0.00%

---------- End Simulation Statistics   ----------
