
---------- Begin Simulation Statistics ----------
sim_seconds                                  2.914428                       # Number of seconds simulated
sim_ticks                                2914427752000                       # Number of ticks simulated
final_tick                               2914427752000                       # Number of ticks from beginning of simulation (restored from checkpoints and never reset)
sim_freq                                 1000000000000                       # Frequency of simulated ticks
host_inst_rate                                 138441                       # Simulator instruction rate (inst/s)
host_op_rate                                   383150                       # Simulator op (including micro ops) rate (op/s)
host_tick_rate                              232339415                       # Simulator tick rate (ticks/s)
host_mem_usage                                3360592                       # Number of bytes of host memory used
host_seconds                                 12543.84                       # Real time elapsed on the host
sim_insts                                  1736581897                       # Number of instructions simulated
sim_ops                                    4806175923                       # Number of ops (including micro ops) simulated
system.voltage_domain.voltage                       1                       # Voltage in Volts
system.clk_domain.clock                          1000                       # Clock period in ticks
system.mem_ctrls.bytes_read::ruby.dir_cntrl0    192820608                       # Number of bytes read from this memory
system.mem_ctrls.bytes_read::total          192820608                       # Number of bytes read from this memory
system.mem_ctrls.bytes_written::ruby.dir_cntrl0    138894976                       # Number of bytes written to this memory
system.mem_ctrls.bytes_written::total       138894976                       # Number of bytes written to this memory
system.mem_ctrls.num_reads::ruby.dir_cntrl0      3012822                       # Number of read requests responded to by this memory
system.mem_ctrls.num_reads::total             3012822                       # Number of read requests responded to by this memory
system.mem_ctrls.num_writes::ruby.dir_cntrl0      2170234                       # Number of write requests responded to by this memory
system.mem_ctrls.num_writes::total            2170234                       # Number of write requests responded to by this memory
system.mem_ctrls.bw_read::ruby.dir_cntrl0     66160710                       # Total read bandwidth from this memory (bytes/s)
system.mem_ctrls.bw_read::total              66160710                       # Total read bandwidth from this memory (bytes/s)
system.mem_ctrls.bw_write::ruby.dir_cntrl0     47657718                       # Write bandwidth from this memory (bytes/s)
system.mem_ctrls.bw_write::total             47657718                       # Write bandwidth from this memory (bytes/s)
system.mem_ctrls.bw_total::ruby.dir_cntrl0    113818428                       # Total bandwidth to/from this memory (bytes/s)
system.mem_ctrls.bw_total::total            113818428                       # Total bandwidth to/from this memory (bytes/s)
system.mem_ctrls.memReq                       5183056                       # Total number of memory requests
system.mem_ctrls.memRead                      3012822                       # Number of memory reads
system.mem_ctrls.memWrite                     2170234                       # Number of memory writes
system.mem_ctrls.memRefresh                  36336232                       # Number of memory refreshes
system.mem_ctrls.memWaitCycles               19942654                       # Delay stalled at the head of the bank queue
system.mem_ctrls.memInputQ                        858                       # Delay in the input queue
system.mem_ctrls.memBankQ                       91704                       # Delay behind the head of the bank queue
system.mem_ctrls.totalStalls                 20035216                       # Total number of stall cycles
system.mem_ctrls.stallsPerReq                3.865522                       # Expected number of stall cycles per request
system.mem_ctrls.memBankBusy                 19822538                       # memory stalls due to busy bank
system.mem_ctrls.memBusBusy                     88263                       # memory stalls due to busy bus
system.mem_ctrls.memReadWriteBusy                 760                       # memory stalls due to read write turnaround
system.mem_ctrls.memDataBusBusy                  1149                       # memory stalls due to read read turnaround
system.mem_ctrls.memArbWait                     29944                       # memory stalls due to arbitration
system.mem_ctrls.memBankCount            |      162207      3.13%      3.13% |      162003      3.13%      6.26% |      161738      3.12%      9.38% |      161829      3.12%     12.50% |      161966      3.12%     15.62% |      161520      3.12%     18.74% |      161744      3.12%     21.86% |      161792      3.12%     24.98% |      161837      3.12%     28.10% |      161895      3.12%     31.23% |      161759      3.12%     34.35% |      161623      3.12%     37.47% |      161956      3.12%     40.59% |      161867      3.12%     43.71% |      161940      3.12%     46.84% |      161862      3.12%     49.96% |      162591      3.14%     53.10% |      162670      3.14%     56.24% |      162620      3.14%     59.37% |      161782      3.12%     62.50% |      161920      3.12%     65.62% |      162162      3.13%     68.75% |      162152      3.13%     71.88% |      162070      3.13%     75.00% |      162069      3.13%     78.13% |      161573      3.12%     81.25% |      161800      3.12%     84.37% |      162042      3.13%     87.50% |      162107      3.13%     90.62% |      161933      3.12%     93.75% |      161975      3.13%     96.87% |      162052      3.13%    100.00% # Number of accesses per bank
system.mem_ctrls.memBankCount::total          5183056                       # Number of accesses per bank
system.cpu_voltage_domain.voltage                   1                       # Voltage in Volts
system.cpu_clk_domain.clock                       500                       # Clock period in ticks
system.cpu0.apic_clk_domain.clock                8000                       # Clock period in ticks
system.cpu0.workload.num_syscalls                 110                       # Number of system calls
system.cpu0.numCycles                      5828855504                       # number of cpu cycles simulated
system.cpu0.numWorkItemsStarted                     0                       # number of work items this cpu started
system.cpu0.numWorkItemsCompleted                   0                       # number of work items this cpu completed
system.cpu0.committedInsts                 1620427433                       # Number of instructions committed
system.cpu0.committedOps                   4573879533                       # Number of ops (including micro ops) committed
system.cpu0.num_int_alu_accesses           4317695909                       # Number of integer alu accesses
system.cpu0.num_fp_alu_accesses             108341154                       # Number of float alu accesses
system.cpu0.num_func_calls                  152159734                       # number of times a function call or return occured
system.cpu0.num_conditional_control_insts    357079331                       # number of instructions that are conditional controls
system.cpu0.num_int_insts                  4317695909                       # number of integer instructions
system.cpu0.num_fp_insts                    108341154                       # number of float instructions
system.cpu0.num_int_register_reads         9105963044                       # number of times the integer registers were read
system.cpu0.num_int_register_writes        4286211281                       # number of times the integer registers were written
system.cpu0.num_fp_register_reads           174106828                       # number of times the floating registers were read
system.cpu0.num_fp_register_writes           85151978                       # number of times the floating registers were written
system.cpu0.num_cc_register_reads          3657391501                       # number of times the CC registers were read
system.cpu0.num_cc_register_writes         1368926014                       # number of times the CC registers were written
system.cpu0.num_mem_refs                    712211222                       # number of memory refs
system.cpu0.num_load_insts                  434017959                       # Number of load instructions
system.cpu0.num_store_insts                 278193263                       # Number of store instructions
system.cpu0.num_idle_cycles                  0.002000                       # Number of idle cycles
system.cpu0.num_busy_cycles              5828855503.998000                       # Number of busy cycles
system.cpu0.not_idle_fraction                1.000000                       # Percentage of non-idle cycles
system.cpu0.idle_fraction                    0.000000                       # Percentage of idle cycles
system.cpu0.Branches                        582237362                       # Number of branches fetched
system.cpu0.op_class::No_OpClass             88981574      1.95%      1.95% # Class of executed instruction
system.cpu0.op_class::IntAlu               3307498630     72.31%     74.26% # Class of executed instruction
system.cpu0.op_class::IntMult                     349      0.00%     74.26% # Class of executed instruction
system.cpu0.op_class::IntDiv                380036527      8.31%     82.57% # Class of executed instruction
system.cpu0.op_class::FloatAdd               85151231      1.86%     84.43% # Class of executed instruction
system.cpu0.op_class::FloatCmp                      0      0.00%     84.43% # Class of executed instruction
system.cpu0.op_class::FloatCvt                      0      0.00%     84.43% # Class of executed instruction
system.cpu0.op_class::FloatMult                     0      0.00%     84.43% # Class of executed instruction
system.cpu0.op_class::FloatDiv                      0      0.00%     84.43% # Class of executed instruction
system.cpu0.op_class::FloatSqrt                     0      0.00%     84.43% # Class of executed instruction
system.cpu0.op_class::SimdAdd                       0      0.00%     84.43% # Class of executed instruction
system.cpu0.op_class::SimdAddAcc                    0      0.00%     84.43% # Class of executed instruction
system.cpu0.op_class::SimdAlu                       0      0.00%     84.43% # Class of executed instruction
system.cpu0.op_class::SimdCmp                       0      0.00%     84.43% # Class of executed instruction
system.cpu0.op_class::SimdCvt                       0      0.00%     84.43% # Class of executed instruction
system.cpu0.op_class::SimdMisc                      0      0.00%     84.43% # Class of executed instruction
system.cpu0.op_class::SimdMult                      0      0.00%     84.43% # Class of executed instruction
system.cpu0.op_class::SimdMultAcc                   0      0.00%     84.43% # Class of executed instruction
system.cpu0.op_class::SimdShift                     0      0.00%     84.43% # Class of executed instruction
system.cpu0.op_class::SimdShiftAcc                  0      0.00%     84.43% # Class of executed instruction
system.cpu0.op_class::SimdSqrt                      0      0.00%     84.43% # Class of executed instruction
system.cpu0.op_class::SimdFloatAdd                  0      0.00%     84.43% # Class of executed instruction
system.cpu0.op_class::SimdFloatAlu                  0      0.00%     84.43% # Class of executed instruction
system.cpu0.op_class::SimdFloatCmp                  0      0.00%     84.43% # Class of executed instruction
system.cpu0.op_class::SimdFloatCvt                  0      0.00%     84.43% # Class of executed instruction
system.cpu0.op_class::SimdFloatDiv                  0      0.00%     84.43% # Class of executed instruction
system.cpu0.op_class::SimdFloatMisc                 0      0.00%     84.43% # Class of executed instruction
system.cpu0.op_class::SimdFloatMult                 0      0.00%     84.43% # Class of executed instruction
system.cpu0.op_class::SimdFloatMultAcc              0      0.00%     84.43% # Class of executed instruction
system.cpu0.op_class::SimdFloatSqrt                 0      0.00%     84.43% # Class of executed instruction
system.cpu0.op_class::MemRead               434017959      9.49%     93.92% # Class of executed instruction
system.cpu0.op_class::MemWrite              278193263      6.08%    100.00% # Class of executed instruction
system.cpu0.op_class::IprAccess                     0      0.00%    100.00% # Class of executed instruction
system.cpu0.op_class::InstPrefetch                  0      0.00%    100.00% # Class of executed instruction
system.cpu0.op_class::total                4573879533                       # Class of executed instruction
system.cpu1.apic_clk_domain.clock                8000                       # Clock period in ticks
system.cpu1.numCycles                      5828620092                       # number of cpu cycles simulated
system.cpu1.numWorkItemsStarted                     0                       # number of work items this cpu started
system.cpu1.numWorkItemsCompleted                   0                       # number of work items this cpu completed
system.cpu1.committedInsts                   58077232                       # Number of instructions committed
system.cpu1.committedOps                    116148195                       # Number of ops (including micro ops) committed
system.cpu1.num_int_alu_accesses             87175319                       # Number of integer alu accesses
system.cpu1.num_fp_alu_accesses              56894279                       # Number of float alu accesses
system.cpu1.num_func_calls                     161815                       # number of times a function call or return occured
system.cpu1.num_conditional_control_insts      7134452                       # number of instructions that are conditional controls
system.cpu1.num_int_insts                    87175319                       # number of integer instructions
system.cpu1.num_fp_insts                     56894279                       # number of float instructions
system.cpu1.num_int_register_reads          153196448                       # number of times the integer registers were read
system.cpu1.num_int_register_writes          52032168                       # number of times the integer registers were written
system.cpu1.num_fp_register_reads            86190677                       # number of times the floating registers were read
system.cpu1.num_fp_register_writes           56813392                       # number of times the floating registers were written
system.cpu1.num_cc_register_reads            42887640                       # number of times the CC registers were read
system.cpu1.num_cc_register_writes           42862530                       # number of times the CC registers were written
system.cpu1.num_mem_refs                     28338623                       # number of memory refs
system.cpu1.num_load_insts                   28176742                       # Number of load instructions
system.cpu1.num_store_insts                    161881                       # Number of store instructions
system.cpu1.num_idle_cycles              5554926804.191867                       # Number of idle cycles
system.cpu1.num_busy_cycles              273693287.808133                       # Number of busy cycles
system.cpu1.not_idle_fraction                0.046957                       # Percentage of non-idle cycles
system.cpu1.idle_fraction                    0.953043                       # Percentage of idle cycles
system.cpu1.Branches                          7383422                       # Number of branches fetched
system.cpu1.op_class::No_OpClass                    2      0.00%      0.00% # Class of executed instruction
system.cpu1.op_class::IntAlu                 58594024     50.45%     50.45% # Class of executed instruction
system.cpu1.op_class::IntMult                  242657      0.21%     50.66% # Class of executed instruction
system.cpu1.op_class::IntDiv                       14      0.00%     50.66% # Class of executed instruction
system.cpu1.op_class::FloatAdd               28972875     24.94%     75.60% # Class of executed instruction
system.cpu1.op_class::FloatCmp                      0      0.00%     75.60% # Class of executed instruction
system.cpu1.op_class::FloatCvt                      0      0.00%     75.60% # Class of executed instruction
system.cpu1.op_class::FloatMult                     0      0.00%     75.60% # Class of executed instruction
system.cpu1.op_class::FloatDiv                      0      0.00%     75.60% # Class of executed instruction
system.cpu1.op_class::FloatSqrt                     0      0.00%     75.60% # Class of executed instruction
system.cpu1.op_class::SimdAdd                       0      0.00%     75.60% # Class of executed instruction
system.cpu1.op_class::SimdAddAcc                    0      0.00%     75.60% # Class of executed instruction
system.cpu1.op_class::SimdAlu                       0      0.00%     75.60% # Class of executed instruction
system.cpu1.op_class::SimdCmp                       0      0.00%     75.60% # Class of executed instruction
system.cpu1.op_class::SimdCvt                       0      0.00%     75.60% # Class of executed instruction
system.cpu1.op_class::SimdMisc                      0      0.00%     75.60% # Class of executed instruction
system.cpu1.op_class::SimdMult                      0      0.00%     75.60% # Class of executed instruction
system.cpu1.op_class::SimdMultAcc                   0      0.00%     75.60% # Class of executed instruction
system.cpu1.op_class::SimdShift                     0      0.00%     75.60% # Class of executed instruction
system.cpu1.op_class::SimdShiftAcc                  0      0.00%     75.60% # Class of executed instruction
system.cpu1.op_class::SimdSqrt                      0      0.00%     75.60% # Class of executed instruction
system.cpu1.op_class::SimdFloatAdd                  0      0.00%     75.60% # Class of executed instruction
system.cpu1.op_class::SimdFloatAlu                  0      0.00%     75.60% # Class of executed instruction
system.cpu1.op_class::SimdFloatCmp                  0      0.00%     75.60% # Class of executed instruction
system.cpu1.op_class::SimdFloatCvt                  0      0.00%     75.60% # Class of executed instruction
system.cpu1.op_class::SimdFloatDiv                  0      0.00%     75.60% # Class of executed instruction
system.cpu1.op_class::SimdFloatMisc                 0      0.00%     75.60% # Class of executed instruction
system.cpu1.op_class::SimdFloatMult                 0      0.00%     75.60% # Class of executed instruction
system.cpu1.op_class::SimdFloatMultAcc              0      0.00%     75.60% # Class of executed instruction
system.cpu1.op_class::SimdFloatSqrt                 0      0.00%     75.60% # Class of executed instruction
system.cpu1.op_class::MemRead                28176742     24.26%     99.86% # Class of executed instruction
system.cpu1.op_class::MemWrite                 161881      0.14%    100.00% # Class of executed instruction
system.cpu1.op_class::IprAccess                     0      0.00%    100.00% # Class of executed instruction
system.cpu1.op_class::InstPrefetch                  0      0.00%    100.00% # Class of executed instruction
system.cpu1.op_class::total                 116148195                       # Class of executed instruction
system.cpu2.apic_clk_domain.clock                8000                       # Clock period in ticks
system.cpu2.numCycles                      5828620116                       # number of cpu cycles simulated
system.cpu2.numWorkItemsStarted                     0                       # number of work items this cpu started
system.cpu2.numWorkItemsCompleted                   0                       # number of work items this cpu completed
system.cpu2.committedInsts                   58077232                       # Number of instructions committed
system.cpu2.committedOps                    116148195                       # Number of ops (including micro ops) committed
system.cpu2.num_int_alu_accesses             87175319                       # Number of integer alu accesses
system.cpu2.num_fp_alu_accesses              56894279                       # Number of float alu accesses
system.cpu2.num_func_calls                     161815                       # number of times a function call or return occured
system.cpu2.num_conditional_control_insts      7134452                       # number of instructions that are conditional controls
system.cpu2.num_int_insts                    87175319                       # number of integer instructions
system.cpu2.num_fp_insts                     56894279                       # number of float instructions
system.cpu2.num_int_register_reads          153196448                       # number of times the integer registers were read
system.cpu2.num_int_register_writes          52032168                       # number of times the integer registers were written
system.cpu2.num_fp_register_reads            86190677                       # number of times the floating registers were read
system.cpu2.num_fp_register_writes           56813392                       # number of times the floating registers were written
system.cpu2.num_cc_register_reads            42887640                       # number of times the CC registers were read
system.cpu2.num_cc_register_writes           42862530                       # number of times the CC registers were written
system.cpu2.num_mem_refs                     28338623                       # number of memory refs
system.cpu2.num_load_insts                   28176742                       # Number of load instructions
system.cpu2.num_store_insts                    161881                       # Number of store instructions
system.cpu2.num_idle_cycles              5554927323.044874                       # Number of idle cycles
system.cpu2.num_busy_cycles              273692792.955126                       # Number of busy cycles
system.cpu2.not_idle_fraction                0.046957                       # Percentage of non-idle cycles
system.cpu2.idle_fraction                    0.953043                       # Percentage of idle cycles
system.cpu2.Branches                          7383422                       # Number of branches fetched
system.cpu2.op_class::No_OpClass                    2      0.00%      0.00% # Class of executed instruction
system.cpu2.op_class::IntAlu                 58594024     50.45%     50.45% # Class of executed instruction
system.cpu2.op_class::IntMult                  242657      0.21%     50.66% # Class of executed instruction
system.cpu2.op_class::IntDiv                       14      0.00%     50.66% # Class of executed instruction
system.cpu2.op_class::FloatAdd               28972875     24.94%     75.60% # Class of executed instruction
system.cpu2.op_class::FloatCmp                      0      0.00%     75.60% # Class of executed instruction
system.cpu2.op_class::FloatCvt                      0      0.00%     75.60% # Class of executed instruction
system.cpu2.op_class::FloatMult                     0      0.00%     75.60% # Class of executed instruction
system.cpu2.op_class::FloatDiv                      0      0.00%     75.60% # Class of executed instruction
system.cpu2.op_class::FloatSqrt                     0      0.00%     75.60% # Class of executed instruction
system.cpu2.op_class::SimdAdd                       0      0.00%     75.60% # Class of executed instruction
system.cpu2.op_class::SimdAddAcc                    0      0.00%     75.60% # Class of executed instruction
system.cpu2.op_class::SimdAlu                       0      0.00%     75.60% # Class of executed instruction
system.cpu2.op_class::SimdCmp                       0      0.00%     75.60% # Class of executed instruction
system.cpu2.op_class::SimdCvt                       0      0.00%     75.60% # Class of executed instruction
system.cpu2.op_class::SimdMisc                      0      0.00%     75.60% # Class of executed instruction
system.cpu2.op_class::SimdMult                      0      0.00%     75.60% # Class of executed instruction
system.cpu2.op_class::SimdMultAcc                   0      0.00%     75.60% # Class of executed instruction
system.cpu2.op_class::SimdShift                     0      0.00%     75.60% # Class of executed instruction
system.cpu2.op_class::SimdShiftAcc                  0      0.00%     75.60% # Class of executed instruction
system.cpu2.op_class::SimdSqrt                      0      0.00%     75.60% # Class of executed instruction
system.cpu2.op_class::SimdFloatAdd                  0      0.00%     75.60% # Class of executed instruction
system.cpu2.op_class::SimdFloatAlu                  0      0.00%     75.60% # Class of executed instruction
system.cpu2.op_class::SimdFloatCmp                  0      0.00%     75.60% # Class of executed instruction
system.cpu2.op_class::SimdFloatCvt                  0      0.00%     75.60% # Class of executed instruction
system.cpu2.op_class::SimdFloatDiv                  0      0.00%     75.60% # Class of executed instruction
system.cpu2.op_class::SimdFloatMisc                 0      0.00%     75.60% # Class of executed instruction
system.cpu2.op_class::SimdFloatMult                 0      0.00%     75.60% # Class of executed instruction
system.cpu2.op_class::SimdFloatMultAcc              0      0.00%     75.60% # Class of executed instruction
system.cpu2.op_class::SimdFloatSqrt                 0      0.00%     75.60% # Class of executed instruction
system.cpu2.op_class::MemRead                28176742     24.26%     99.86% # Class of executed instruction
system.cpu2.op_class::MemWrite                 161881      0.14%    100.00% # Class of executed instruction
system.cpu2.op_class::IprAccess                     0      0.00%    100.00% # Class of executed instruction
system.cpu2.op_class::InstPrefetch                  0      0.00%    100.00% # Class of executed instruction
system.cpu2.op_class::total                 116148195                       # Class of executed instruction
system.ruby.clk_domain.clock                      500                       # Clock period in ticks
system.ruby.delayHist::bucket_size                 16                       # delay histogram for all message
system.ruby.delayHist::max_bucket                 159                       # delay histogram for all message
system.ruby.delayHist::samples               38685552                       # delay histogram for all message
system.ruby.delayHist::mean                  0.481484                       # delay histogram for all message
system.ruby.delayHist::stdev                 1.903475                       # delay histogram for all message
system.ruby.delayHist                    |    38684594    100.00%    100.00% |         951      0.00%    100.00% |           4      0.00%    100.00% |           2      0.00%    100.00% |           0      0.00%    100.00% |           1      0.00%    100.00% |           0      0.00%    100.00% |           0      0.00%    100.00% |           0      0.00%    100.00% |           0      0.00%    100.00% # delay histogram for all message
system.ruby.delayHist::total                 38685552                       # delay histogram for all message
system.ruby.outstanding_req_hist::bucket_size            1                      
system.ruby.outstanding_req_hist::max_bucket            9                      
system.ruby.outstanding_req_hist::samples   3026394705                      
system.ruby.outstanding_req_hist::mean       1.000195                      
system.ruby.outstanding_req_hist::gmean      1.000135                      
system.ruby.outstanding_req_hist::stdev      0.013960                      
system.ruby.outstanding_req_hist         |           0      0.00%      0.00% |  3025804817     99.98%     99.98% |      589888      0.02%    100.00% |           0      0.00%    100.00% |           0      0.00%    100.00% |           0      0.00%    100.00% |           0      0.00%    100.00% |           0      0.00%    100.00% |           0      0.00%    100.00% |           0      0.00%    100.00%
system.ruby.outstanding_req_hist::total    3026394705                      
system.ruby.latency_hist::bucket_size              16                      
system.ruby.latency_hist::max_bucket              159                      
system.ruby.latency_hist::samples          3026394705                      
system.ruby.latency_hist::mean               1.107177                      
system.ruby.latency_hist::gmean              1.007303                      
system.ruby.latency_hist::stdev              2.812901                      
system.ruby.latency_hist                 |  3020898563     99.82%     99.82% |     1956592      0.06%     99.88% |       40279      0.00%     99.88% |      263065      0.01%     99.89% |      997136      0.03%     99.93% |     2205585      0.07%    100.00% |       32133      0.00%    100.00% |        1324      0.00%    100.00% |          28      0.00%    100.00% |           0      0.00%    100.00%
system.ruby.latency_hist::total            3026394705                      
system.ruby.hit_latency_hist::bucket_size           16                      
system.ruby.hit_latency_hist::max_bucket          159                      
system.ruby.hit_latency_hist::samples      3026394705                      
system.ruby.hit_latency_hist::mean           1.107177                      
system.ruby.hit_latency_hist::gmean          1.007303                      
system.ruby.hit_latency_hist::stdev          2.812901                      
system.ruby.hit_latency_hist             |  3020898563     99.82%     99.82% |     1956592      0.06%     99.88% |       40279      0.00%     99.88% |      263065      0.01%     99.89% |      997136      0.03%     99.93% |     2205585      0.07%    100.00% |       32133      0.00%    100.00% |        1324      0.00%    100.00% |          28      0.00%    100.00% |           0      0.00%    100.00%
system.ruby.hit_latency_hist::total        3026394705                      
system.ruby.l0_cntrl0.Dcache.demand_hits    710035496                       # Number of cache demand hits
system.ruby.l0_cntrl0.Dcache.demand_misses      2175790                       # Number of cache demand misses
system.ruby.l0_cntrl0.Dcache.demand_accesses    712211286                       # Number of cache demand accesses
system.ruby.l0_cntrl0.Icache.demand_hits   2107898338                       # Number of cache demand hits
system.ruby.l0_cntrl0.Icache.demand_misses         6631                       # Number of cache demand misses
system.ruby.l0_cntrl0.Icache.demand_accesses   2107904969                       # Number of cache demand accesses
system.ruby.l0_cntrl0.Zcache.demand_hits            0                       # Number of cache demand hits
system.ruby.l0_cntrl0.Zcache.demand_misses            0                       # Number of cache demand misses
system.ruby.l0_cntrl0.Zcache.demand_accesses            0                       # Number of cache demand accesses
system.ruby.l0_cntrl1.Dcache.demand_hits     26812813                       # Number of cache demand hits
system.ruby.l0_cntrl1.Dcache.demand_misses      1820722                       # Number of cache demand misses
system.ruby.l0_cntrl1.Dcache.demand_accesses     28633535                       # Number of cache demand accesses
system.ruby.l0_cntrl1.Icache.demand_hits     74503435                       # Number of cache demand hits
system.ruby.l0_cntrl1.Icache.demand_misses         2255                       # Number of cache demand misses
system.ruby.l0_cntrl1.Icache.demand_accesses     74505690                       # Number of cache demand accesses
system.ruby.l0_cntrl1.Zcache.demand_hits            0                       # Number of cache demand hits
system.ruby.l0_cntrl1.Zcache.demand_misses            0                       # Number of cache demand misses
system.ruby.l0_cntrl1.Zcache.demand_accesses            0                       # Number of cache demand accesses
system.ruby.l0_cntrl2.Dcache.demand_hits     26818491                       # Number of cache demand hits
system.ruby.l0_cntrl2.Dcache.demand_misses      1815044                       # Number of cache demand misses
system.ruby.l0_cntrl2.Dcache.demand_accesses     28633535                       # Number of cache demand accesses
system.ruby.l0_cntrl2.Icache.demand_hits     74503402                       # Number of cache demand hits
system.ruby.l0_cntrl2.Icache.demand_misses         2288                       # Number of cache demand misses
system.ruby.l0_cntrl2.Icache.demand_accesses     74505690                       # Number of cache demand accesses
system.ruby.l0_cntrl2.Zcache.demand_hits            0                       # Number of cache demand hits
system.ruby.l0_cntrl2.Zcache.demand_misses            0                       # Number of cache demand misses
system.ruby.l0_cntrl2.Zcache.demand_accesses            0                       # Number of cache demand accesses
system.ruby.l1_cntrl0.cache.demand_hits           129                       # Number of cache demand hits
system.ruby.l1_cntrl0.cache.demand_misses      2182292                       # Number of cache demand misses
system.ruby.l1_cntrl0.cache.demand_accesses      2182421                       # Number of cache demand accesses
system.ruby.l1_cntrl1.cache.demand_hits        168210                       # Number of cache demand hits
system.ruby.l1_cntrl1.cache.demand_misses      1654767                       # Number of cache demand misses
system.ruby.l1_cntrl1.cache.demand_accesses      1822977                       # Number of cache demand accesses
system.ruby.l1_cntrl2.cache.demand_hits        158249                       # Number of cache demand hits
system.ruby.l1_cntrl2.cache.demand_misses      1659083                       # Number of cache demand misses
system.ruby.l1_cntrl2.cache.demand_accesses      1817332                       # Number of cache demand accesses
system.ruby.l2_cntrl0.L2cache.demand_hits      1952944                       # Number of cache demand hits
system.ruby.l2_cntrl0.L2cache.demand_misses      3543198                       # Number of cache demand misses
system.ruby.l2_cntrl0.L2cache.demand_accesses      5496142                       # Number of cache demand accesses
system.ruby.l2_cntrl0.fully_busy_cycles           544                       # cycles for which number of transistions == max transitions
system.ruby.memctrl_clk_domain.clock             1500                       # Clock period in ticks
system.ruby.network.routers0.percent_links_utilized            0                      
system.ruby.network.routers1.percent_links_utilized            0                      
system.ruby.network.routers2.percent_links_utilized            0                      
system.ruby.network.routers3.percent_links_utilized     0.196500                      
system.ruby.network.routers3.msg_count.Control::0      2182292                      
system.ruby.network.routers3.msg_count.Request_Control::2         4253                      
system.ruby.network.routers3.msg_count.Response_Data::1      2182299                      
system.ruby.network.routers3.msg_count.Response_Control::1      2177368                      
system.ruby.network.routers3.msg_count.Response_Control::2      2182282                      
system.ruby.network.routers3.msg_count.Writeback_Data::0      2176639                      
system.ruby.network.routers3.msg_count.Writeback_Data::1         4164                      
system.ruby.network.routers3.msg_count.Writeback_Control::0          611                      
system.ruby.network.routers3.msg_bytes.Control::0     17458336                      
system.ruby.network.routers3.msg_bytes.Request_Control::2        34024                      
system.ruby.network.routers3.msg_bytes.Response_Data::1    157125528                      
system.ruby.network.routers3.msg_bytes.Response_Control::1     17418944                      
system.ruby.network.routers3.msg_bytes.Response_Control::2     17458256                      
system.ruby.network.routers3.msg_bytes.Writeback_Data::0    156718008                      
system.ruby.network.routers3.msg_bytes.Writeback_Data::1       299808                      
system.ruby.network.routers3.msg_bytes.Writeback_Control::0         4888                      
system.ruby.network.routers4.percent_links_utilized     0.091573                      
system.ruby.network.routers4.msg_count.Control::0      1654767                      
system.ruby.network.routers4.msg_count.Request_Control::2       419266                      
system.ruby.network.routers4.msg_count.Response_Data::1      1702424                      
system.ruby.network.routers4.msg_count.Response_Control::1      1497452                      
system.ruby.network.routers4.msg_count.Response_Control::2      1135871                      
system.ruby.network.routers4.msg_count.Writeback_Data::0        25364                      
system.ruby.network.routers4.msg_count.Writeback_Data::1         1656                      
system.ruby.network.routers4.msg_count.Writeback_Control::0      1078307                      
system.ruby.network.routers4.msg_bytes.Control::0     13238136                      
system.ruby.network.routers4.msg_bytes.Request_Control::2      3354128                      
system.ruby.network.routers4.msg_bytes.Response_Data::1    122574528                      
system.ruby.network.routers4.msg_bytes.Response_Control::1     11979616                      
system.ruby.network.routers4.msg_bytes.Response_Control::2      9086968                      
system.ruby.network.routers4.msg_bytes.Writeback_Data::0      1826208                      
system.ruby.network.routers4.msg_bytes.Writeback_Data::1       119232                      
system.ruby.network.routers4.msg_bytes.Writeback_Control::0      8626456                      
system.ruby.network.routers5.percent_links_utilized     0.090071                      
system.ruby.network.routers5.msg_count.Control::0      1659083                      
system.ruby.network.routers5.msg_count.Request_Control::2       398958                      
system.ruby.network.routers5.msg_count.Response_Data::1      1669537                      
system.ruby.network.routers5.msg_count.Response_Control::1      1497495                      
system.ruby.network.routers5.msg_count.Response_Control::2      1135427                      
system.ruby.network.routers5.msg_count.Writeback_Data::0        21015                      
system.ruby.network.routers5.msg_count.Writeback_Data::1         1176                      
system.ruby.network.routers5.msg_count.Writeback_Control::0      1083924                      
system.ruby.network.routers5.msg_bytes.Control::0     13272664                      
system.ruby.network.routers5.msg_bytes.Request_Control::2      3191664                      
system.ruby.network.routers5.msg_bytes.Response_Data::1    120206664                      
system.ruby.network.routers5.msg_bytes.Response_Control::1     11979960                      
system.ruby.network.routers5.msg_bytes.Response_Control::2      9083416                      
system.ruby.network.routers5.msg_bytes.Writeback_Data::0      1513080                      
system.ruby.network.routers5.msg_bytes.Writeback_Data::1        84672                      
system.ruby.network.routers5.msg_bytes.Writeback_Control::0      8671392                      
system.ruby.network.routers6.percent_links_utilized     0.582989                      
system.ruby.network.routers6.msg_count.Control::0      8508964                      
system.ruby.network.routers6.msg_count.Request_Control::2       429921                      
system.ruby.network.routers6.msg_count.Response_Data::1     10177868                      
system.ruby.network.routers6.msg_count.Response_Control::1      8699993                      
system.ruby.network.routers6.msg_count.Response_Control::2      4453580                      
system.ruby.network.routers6.msg_count.Writeback_Data::0      2223018                      
system.ruby.network.routers6.msg_count.Writeback_Data::1         6996                      
system.ruby.network.routers6.msg_count.Writeback_Control::0      2162842                      
system.ruby.network.routers6.msg_bytes.Control::0     68071712                      
system.ruby.network.routers6.msg_bytes.Request_Control::2      3439368                      
system.ruby.network.routers6.msg_bytes.Response_Data::1    732806496                      
system.ruby.network.routers6.msg_bytes.Response_Control::1     69599944                      
system.ruby.network.routers6.msg_bytes.Response_Control::2     35628640                      
system.ruby.network.routers6.msg_bytes.Writeback_Data::0    160057296                      
system.ruby.network.routers6.msg_bytes.Writeback_Data::1       503712                      
system.ruby.network.routers6.msg_bytes.Writeback_Control::0     17302736                      
system.ruby.network.routers7.percent_links_utilized     0.228124                      
system.ruby.network.routers7.msg_count.Control::0      3012822                      
system.ruby.network.routers7.msg_count.Response_Data::1      5183056                      
system.ruby.network.routers7.msg_count.Response_Control::1      3527730                      
system.ruby.network.routers7.msg_bytes.Control::0     24102576                      
system.ruby.network.routers7.msg_bytes.Response_Data::1    373180032                      
system.ruby.network.routers7.msg_bytes.Response_Control::1     28221840                      
system.ruby.network.routers8.percent_links_utilized     0.151286                      
system.ruby.network.routers8.msg_count.Control::0      8508964                      
system.ruby.network.routers8.msg_count.Request_Control::2       822477                      
system.ruby.network.routers8.msg_count.Response_Data::1     10708244                      
system.ruby.network.routers8.msg_count.Response_Control::1      8700019                      
system.ruby.network.routers8.msg_count.Response_Control::2      4453580                      
system.ruby.network.routers8.msg_count.Writeback_Data::0      2223018                      
system.ruby.network.routers8.msg_count.Writeback_Data::1         6996                      
system.ruby.network.routers8.msg_count.Writeback_Control::0      2162842                      
system.ruby.network.routers8.msg_bytes.Control::0     68071712                      
system.ruby.network.routers8.msg_bytes.Request_Control::2      6579816                      
system.ruby.network.routers8.msg_bytes.Response_Data::1    770993568                      
system.ruby.network.routers8.msg_bytes.Response_Control::1     69600152                      
system.ruby.network.routers8.msg_bytes.Response_Control::2     35628640                      
system.ruby.network.routers8.msg_bytes.Writeback_Data::0    160057296                      
system.ruby.network.routers8.msg_bytes.Writeback_Data::1       503712                      
system.ruby.network.routers8.msg_bytes.Writeback_Control::0     17302736                      
system.ruby.network.msg_count.Control        25526892                      
system.ruby.network.msg_count.Request_Control      2074875                      
system.ruby.network.msg_count.Response_Data     31623428                      
system.ruby.network.msg_count.Response_Control     39460797                      
system.ruby.network.msg_count.Writeback_Data      6690042                      
system.ruby.network.msg_count.Writeback_Control      6488526                      
system.ruby.network.msg_byte.Control        204215136                      
system.ruby.network.msg_byte.Request_Control     16599000                      
system.ruby.network.msg_byte.Response_Data   2276886816                      
system.ruby.network.msg_byte.Response_Control    315686376                      
system.ruby.network.msg_byte.Writeback_Data    481683024                      
system.ruby.network.msg_byte.Writeback_Control     51908208                      
system.ruby.network.routers0.throttle0.link_utilization            0                      
system.ruby.network.routers0.throttle1.link_utilization            0                      
system.ruby.network.routers1.throttle0.link_utilization            0                      
system.ruby.network.routers1.throttle1.link_utilization            0                      
system.ruby.network.routers2.throttle0.link_utilization            0                      
system.ruby.network.routers2.throttle1.link_utilization            0                      
system.ruby.network.routers3.throttle0.link_utilization     0.187190                      
system.ruby.network.routers3.throttle0.msg_count.Request_Control::2         4253                      
system.ruby.network.routers3.throttle0.msg_count.Response_Data::1      2182274                      
system.ruby.network.routers3.throttle0.msg_count.Response_Control::1      2177292                      
system.ruby.network.routers3.throttle0.msg_bytes.Request_Control::2        34024                      
system.ruby.network.routers3.throttle0.msg_bytes.Response_Data::1    157123728                      
system.ruby.network.routers3.throttle0.msg_bytes.Response_Control::1     17418336                      
system.ruby.network.routers3.throttle1.link_utilization     0.205810                      
system.ruby.network.routers3.throttle1.msg_count.Control::0      2182292                      
system.ruby.network.routers3.throttle1.msg_count.Response_Data::1           25                      
system.ruby.network.routers3.throttle1.msg_count.Response_Control::1           76                      
system.ruby.network.routers3.throttle1.msg_count.Response_Control::2      2182282                      
system.ruby.network.routers3.throttle1.msg_count.Writeback_Data::0      2176639                      
system.ruby.network.routers3.throttle1.msg_count.Writeback_Data::1         4164                      
system.ruby.network.routers3.throttle1.msg_count.Writeback_Control::0          611                      
system.ruby.network.routers3.throttle1.msg_bytes.Control::0     17458336                      
system.ruby.network.routers3.throttle1.msg_bytes.Response_Data::1         1800                      
system.ruby.network.routers3.throttle1.msg_bytes.Response_Control::1          608                      
system.ruby.network.routers3.throttle1.msg_bytes.Response_Control::2     17458256                      
system.ruby.network.routers3.throttle1.msg_bytes.Writeback_Data::0    156718008                      
system.ruby.network.routers3.throttle1.msg_bytes.Writeback_Data::1       299808                      
system.ruby.network.routers3.throttle1.msg_bytes.Writeback_Control::0         4888                      
system.ruby.network.routers4.throttle0.link_utilization     0.140815                      
system.ruby.network.routers4.throttle0.msg_count.Request_Control::2       419266                      
system.ruby.network.routers4.throttle0.msg_count.Response_Data::1      1654766                      
system.ruby.network.routers4.throttle0.msg_count.Response_Control::1      1103673                      
system.ruby.network.routers4.throttle0.msg_bytes.Request_Control::2      3354128                      
system.ruby.network.routers4.throttle0.msg_bytes.Response_Data::1    119143152                      
system.ruby.network.routers4.throttle0.msg_bytes.Response_Control::1      8829384                      
system.ruby.network.routers4.throttle1.link_utilization     0.042331                      
system.ruby.network.routers4.throttle1.msg_count.Control::0      1654767                      
system.ruby.network.routers4.throttle1.msg_count.Response_Data::1        47658                      
system.ruby.network.routers4.throttle1.msg_count.Response_Control::1       393779                      
system.ruby.network.routers4.throttle1.msg_count.Response_Control::2      1135871                      
system.ruby.network.routers4.throttle1.msg_count.Writeback_Data::0        25364                      
system.ruby.network.routers4.throttle1.msg_count.Writeback_Data::1         1656                      
system.ruby.network.routers4.throttle1.msg_count.Writeback_Control::0      1078307                      
system.ruby.network.routers4.throttle1.msg_bytes.Control::0     13238136                      
system.ruby.network.routers4.throttle1.msg_bytes.Response_Data::1      3431376                      
system.ruby.network.routers4.throttle1.msg_bytes.Response_Control::1      3150232                      
system.ruby.network.routers4.throttle1.msg_bytes.Response_Control::2      9086968                      
system.ruby.network.routers4.throttle1.msg_bytes.Writeback_Data::0      1826208                      
system.ruby.network.routers4.throttle1.msg_bytes.Writeback_Data::1       119232                      
system.ruby.network.routers4.throttle1.msg_bytes.Writeback_Control::0      8626456                      
system.ruby.network.routers5.throttle0.link_utilization     0.140985                      
system.ruby.network.routers5.throttle0.msg_count.Request_Control::2       398958                      
system.ruby.network.routers5.throttle0.msg_count.Response_Data::1      1659082                      
system.ruby.network.routers5.throttle0.msg_count.Response_Control::1      1104941                      
system.ruby.network.routers5.throttle0.msg_bytes.Request_Control::2      3191664                      
system.ruby.network.routers5.throttle0.msg_bytes.Response_Data::1    119453904                      
system.ruby.network.routers5.throttle0.msg_bytes.Response_Control::1      8839528                      
system.ruby.network.routers5.throttle1.link_utilization     0.039157                      
system.ruby.network.routers5.throttle1.msg_count.Control::0      1659083                      
system.ruby.network.routers5.throttle1.msg_count.Response_Data::1        10455                      
system.ruby.network.routers5.throttle1.msg_count.Response_Control::1       392554                      
system.ruby.network.routers5.throttle1.msg_count.Response_Control::2      1135427                      
system.ruby.network.routers5.throttle1.msg_count.Writeback_Data::0        21015                      
system.ruby.network.routers5.throttle1.msg_count.Writeback_Data::1         1176                      
system.ruby.network.routers5.throttle1.msg_count.Writeback_Control::0      1083924                      
system.ruby.network.routers5.throttle1.msg_bytes.Control::0     13272664                      
system.ruby.network.routers5.throttle1.msg_bytes.Response_Data::1       752760                      
system.ruby.network.routers5.throttle1.msg_bytes.Response_Control::1      3140432                      
system.ruby.network.routers5.throttle1.msg_bytes.Response_Control::2      9083416                      
system.ruby.network.routers5.throttle1.msg_bytes.Writeback_Data::0      1513080                      
system.ruby.network.routers5.throttle1.msg_bytes.Writeback_Data::1        84672                      
system.ruby.network.routers5.throttle1.msg_bytes.Writeback_Control::0      8671392                      
system.ruby.network.routers6.throttle0.link_utilization     0.542088                      
system.ruby.network.routers6.throttle0.msg_count.Control::0      5496142                      
system.ruby.network.routers6.throttle0.msg_count.Response_Data::1      3041888                      
system.ruby.network.routers6.throttle0.msg_count.Response_Control::1      3635365                      
system.ruby.network.routers6.throttle0.msg_count.Response_Control::2      4453580                      
system.ruby.network.routers6.throttle0.msg_count.Writeback_Data::0      2223018                      
system.ruby.network.routers6.throttle0.msg_count.Writeback_Data::1         6996                      
system.ruby.network.routers6.throttle0.msg_count.Writeback_Control::0      2162842                      
system.ruby.network.routers6.throttle0.msg_bytes.Control::0     43969136                      
system.ruby.network.routers6.throttle0.msg_bytes.Response_Data::1    219015936                      
system.ruby.network.routers6.throttle0.msg_bytes.Response_Control::1     29082920                      
system.ruby.network.routers6.throttle0.msg_bytes.Response_Control::2     35628640                      
system.ruby.network.routers6.throttle0.msg_bytes.Writeback_Data::0    160057296                      
system.ruby.network.routers6.throttle0.msg_bytes.Writeback_Data::1       503712                      
system.ruby.network.routers6.throttle0.msg_bytes.Writeback_Control::0     17302736                      
system.ruby.network.routers6.throttle1.link_utilization     0.623889                      
system.ruby.network.routers6.throttle1.msg_count.Control::0      3012822                      
system.ruby.network.routers6.throttle1.msg_count.Request_Control::2       429921                      
system.ruby.network.routers6.throttle1.msg_count.Response_Data::1      7135980                      
system.ruby.network.routers6.throttle1.msg_count.Response_Control::1      5064628                      
system.ruby.network.routers6.throttle1.msg_bytes.Control::0     24102576                      
system.ruby.network.routers6.throttle1.msg_bytes.Request_Control::2      3439368                      
system.ruby.network.routers6.throttle1.msg_bytes.Response_Data::1    513790560                      
system.ruby.network.routers6.throttle1.msg_bytes.Response_Control::1     40517024                      
system.ruby.network.routers7.throttle0.link_utilization     0.199213                      
system.ruby.network.routers7.throttle0.msg_count.Control::0      3012822                      
system.ruby.network.routers7.throttle0.msg_count.Response_Data::1      2170234                      
system.ruby.network.routers7.throttle0.msg_count.Response_Control::1       678748                      
system.ruby.network.routers7.throttle0.msg_bytes.Control::0     24102576                      
system.ruby.network.routers7.throttle0.msg_bytes.Response_Data::1    156256848                      
system.ruby.network.routers7.throttle0.msg_bytes.Response_Control::1      5429984                      
system.ruby.network.routers7.throttle1.link_utilization     0.257035                      
system.ruby.network.routers7.throttle1.msg_count.Response_Data::1      3012822                      
system.ruby.network.routers7.throttle1.msg_count.Response_Control::1      2848982                      
system.ruby.network.routers7.throttle1.msg_bytes.Response_Data::1    216923184                      
system.ruby.network.routers7.throttle1.msg_bytes.Response_Control::1     22791856                      
system.ruby.network.routers8.throttle0.link_utilization            0                      
system.ruby.network.routers8.throttle1.link_utilization            0                      
system.ruby.network.routers8.throttle2.link_utilization            0                      
system.ruby.network.routers8.throttle3.link_utilization     0.187190                      
system.ruby.network.routers8.throttle3.msg_count.Request_Control::2         4253                      
system.ruby.network.routers8.throttle3.msg_count.Response_Data::1      2182274                      
system.ruby.network.routers8.throttle3.msg_count.Response_Control::1      2177292                      
system.ruby.network.routers8.throttle3.msg_bytes.Request_Control::2        34024                      
system.ruby.network.routers8.throttle3.msg_bytes.Response_Data::1    157123728                      
system.ruby.network.routers8.throttle3.msg_bytes.Response_Control::1     17418336                      
system.ruby.network.routers8.throttle4.link_utilization     0.140815                      
system.ruby.network.routers8.throttle4.msg_count.Request_Control::2       419266                      
system.ruby.network.routers8.throttle4.msg_count.Response_Data::1      1654766                      
system.ruby.network.routers8.throttle4.msg_count.Response_Control::1      1103673                      
system.ruby.network.routers8.throttle4.msg_bytes.Request_Control::2      3354128                      
system.ruby.network.routers8.throttle4.msg_bytes.Response_Data::1    119143152                      
system.ruby.network.routers8.throttle4.msg_bytes.Response_Control::1      8829384                      
system.ruby.network.routers8.throttle5.link_utilization     0.140985                      
system.ruby.network.routers8.throttle5.msg_count.Request_Control::2       398958                      
system.ruby.network.routers8.throttle5.msg_count.Response_Data::1      1659082                      
system.ruby.network.routers8.throttle5.msg_count.Response_Control::1      1104941                      
system.ruby.network.routers8.throttle5.msg_bytes.Request_Control::2      3191664                      
system.ruby.network.routers8.throttle5.msg_bytes.Response_Data::1    119453904                      
system.ruby.network.routers8.throttle5.msg_bytes.Response_Control::1      8839528                      
system.ruby.network.routers8.throttle6.link_utilization     0.542088                      
system.ruby.network.routers8.throttle6.msg_count.Control::0      5496142                      
system.ruby.network.routers8.throttle6.msg_count.Response_Data::1      3041888                      
system.ruby.network.routers8.throttle6.msg_count.Response_Control::1      3635365                      
system.ruby.network.routers8.throttle6.msg_count.Response_Control::2      4453580                      
system.ruby.network.routers8.throttle6.msg_count.Writeback_Data::0      2223018                      
system.ruby.network.routers8.throttle6.msg_count.Writeback_Data::1         6996                      
system.ruby.network.routers8.throttle6.msg_count.Writeback_Control::0      2162842                      
system.ruby.network.routers8.throttle6.msg_bytes.Control::0     43969136                      
system.ruby.network.routers8.throttle6.msg_bytes.Response_Data::1    219015936                      
system.ruby.network.routers8.throttle6.msg_bytes.Response_Control::1     29082920                      
system.ruby.network.routers8.throttle6.msg_bytes.Response_Control::2     35628640                      
system.ruby.network.routers8.throttle6.msg_bytes.Writeback_Data::0    160057296                      
system.ruby.network.routers8.throttle6.msg_bytes.Writeback_Data::1       503712                      
system.ruby.network.routers8.throttle6.msg_bytes.Writeback_Control::0     17302736                      
system.ruby.network.routers8.throttle7.link_utilization     0.199213                      
system.ruby.network.routers8.throttle7.msg_count.Control::0      3012822                      
system.ruby.network.routers8.throttle7.msg_count.Response_Data::1      2170234                      
system.ruby.network.routers8.throttle7.msg_count.Response_Control::1       678748                      
system.ruby.network.routers8.throttle7.msg_bytes.Control::0     24102576                      
system.ruby.network.routers8.throttle7.msg_bytes.Response_Data::1    156256848                      
system.ruby.network.routers8.throttle7.msg_bytes.Response_Control::1      5429984                      
system.ruby.delayVCHist.vnet_0::bucket_size           16                       # delay histogram for vnet_0
system.ruby.delayVCHist.vnet_0::max_bucket          159                       # delay histogram for vnet_0
system.ruby.delayVCHist.vnet_0::samples      14335582                       # delay histogram for vnet_0
system.ruby.delayVCHist.vnet_0::mean         1.262016                       # delay histogram for vnet_0
system.ruby.delayVCHist.vnet_0::stdev        2.924512                       # delay histogram for vnet_0
system.ruby.delayVCHist.vnet_0           |    14334839     99.99%     99.99% |         736      0.01%    100.00% |           4      0.00%    100.00% |           2      0.00%    100.00% |           0      0.00%    100.00% |           1      0.00%    100.00% |           0      0.00%    100.00% |           0      0.00%    100.00% |           0      0.00%    100.00% |           0      0.00%    100.00% # delay histogram for vnet_0
system.ruby.delayVCHist.vnet_0::total        14335582                       # delay histogram for vnet_0
system.ruby.delayVCHist.vnet_1::bucket_size            2                       # delay histogram for vnet_1
system.ruby.delayVCHist.vnet_1::max_bucket           19                       # delay histogram for vnet_1
system.ruby.delayVCHist.vnet_1::samples      22389007                       # delay histogram for vnet_1
system.ruby.delayVCHist.vnet_1::mean         0.020212                       # delay histogram for vnet_1
system.ruby.delayVCHist.vnet_1::stdev        0.382276                       # delay histogram for vnet_1
system.ruby.delayVCHist.vnet_1           |    22316383     99.68%     99.68% |       14128      0.06%     99.74% |        7992      0.04%     99.77% |        7947      0.04%     99.81% |       41225      0.18%     99.99% |        1047      0.00%    100.00% |          59      0.00%    100.00% |          11      0.00%    100.00% |         190      0.00%    100.00% |          25      0.00%    100.00% # delay histogram for vnet_1
system.ruby.delayVCHist.vnet_1::total        22389007                       # delay histogram for vnet_1
system.ruby.delayVCHist.vnet_2::bucket_size            2                       # delay histogram for vnet_2
system.ruby.delayVCHist.vnet_2::max_bucket           19                       # delay histogram for vnet_2
system.ruby.delayVCHist.vnet_2::samples       1960963                       # delay histogram for vnet_2
system.ruby.delayVCHist.vnet_2::mean         0.041922                       # delay histogram for vnet_2
system.ruby.delayVCHist.vnet_2::stdev        0.456780                       # delay histogram for vnet_2
system.ruby.delayVCHist.vnet_2           |     1944541     99.16%     99.16% |           5      0.00%     99.16% |       16402      0.84%    100.00% |           4      0.00%    100.00% |           1      0.00%    100.00% |           0      0.00%    100.00% |           0      0.00%    100.00% |          10      0.00%    100.00% |           0      0.00%    100.00% |           0      0.00%    100.00% # delay histogram for vnet_2
system.ruby.delayVCHist.vnet_2::total         1960963                       # delay histogram for vnet_2
system.ruby.LD.latency_hist::bucket_size           16                      
system.ruby.LD.latency_hist::max_bucket           159                      
system.ruby.LD.latency_hist::samples        440242591                      
system.ruby.LD.latency_hist::mean            1.306441                      
system.ruby.LD.latency_hist::gmean           1.028163                      
system.ruby.LD.latency_hist::stdev           4.113187                      
system.ruby.LD.latency_hist              |   436940713     99.25%     99.25% |     1945536      0.44%     99.69% |       40233      0.01%     99.70% |      257157      0.06%     99.76% |      836130      0.19%     99.95% |      220093      0.05%    100.00% |        1449      0.00%    100.00% |        1256      0.00%    100.00% |          24      0.00%    100.00% |           0      0.00%    100.00%
system.ruby.LD.latency_hist::total          440242591                      
system.ruby.LD.hit_latency_hist::bucket_size           16                      
system.ruby.LD.hit_latency_hist::max_bucket          159                      
system.ruby.LD.hit_latency_hist::samples    440242591                      
system.ruby.LD.hit_latency_hist::mean        1.306441                      
system.ruby.LD.hit_latency_hist::gmean       1.028163                      
system.ruby.LD.hit_latency_hist::stdev       4.113187                      
system.ruby.LD.hit_latency_hist          |   436940713     99.25%     99.25% |     1945536      0.44%     99.69% |       40233      0.01%     99.70% |      257157      0.06%     99.76% |      836130      0.19%     99.95% |      220093      0.05%    100.00% |        1449      0.00%    100.00% |        1256      0.00%    100.00% |          24      0.00%    100.00% |           0      0.00%    100.00%
system.ruby.LD.hit_latency_hist::total      440242591                      
system.ruby.ST.latency_hist::bucket_size           16                      
system.ruby.ST.latency_hist::max_bucket           159                      
system.ruby.ST.latency_hist::samples        227798747                      
system.ruby.ST.latency_hist::mean            1.830159                      
system.ruby.ST.latency_hist::gmean           1.043759                      
system.ruby.ST.latency_hist::stdev           8.464536                      
system.ruby.ST.latency_hist              |   225616137     99.04%     99.04% |        1116      0.00%     99.04% |           9      0.00%     99.04% |        4612      0.00%     99.04% |      160905      0.07%     99.12% |     1985216      0.87%     99.99% |       30682      0.01%    100.00% |          66      0.00%    100.00% |           4      0.00%    100.00% |           0      0.00%    100.00%
system.ruby.ST.latency_hist::total          227798747                      
system.ruby.ST.hit_latency_hist::bucket_size           16                      
system.ruby.ST.hit_latency_hist::max_bucket          159                      
system.ruby.ST.hit_latency_hist::samples    227798747                      
system.ruby.ST.hit_latency_hist::mean        1.830159                      
system.ruby.ST.hit_latency_hist::gmean       1.043759                      
system.ruby.ST.hit_latency_hist::stdev       8.464536                      
system.ruby.ST.hit_latency_hist          |   225616137     99.04%     99.04% |        1116      0.00%     99.04% |           9      0.00%     99.04% |        4612      0.00%     99.04% |      160905      0.07%     99.12% |     1985216      0.87%     99.99% |       30682      0.01%    100.00% |          66      0.00%    100.00% |           4      0.00%    100.00% |           0      0.00%    100.00%
system.ruby.ST.hit_latency_hist::total      227798747                      
system.ruby.IFETCH.latency_hist::bucket_size           16                      
system.ruby.IFETCH.latency_hist::max_bucket          159                      
system.ruby.IFETCH.latency_hist::samples   2256916349                      
system.ruby.IFETCH.latency_hist::mean        1.000145                      
system.ruby.IFETCH.latency_hist::gmean       1.000016                      
system.ruby.IFETCH.latency_hist::stdev       0.074498                      
system.ruby.IFETCH.latency_hist          |  2256905254    100.00%    100.00% |        9398      0.00%    100.00% |          36      0.00%    100.00% |        1293      0.00%    100.00% |          97      0.00%    100.00% |         269      0.00%    100.00% |           1      0.00%    100.00% |           1      0.00%    100.00% |           0      0.00%    100.00% |           0      0.00%    100.00%
system.ruby.IFETCH.latency_hist::total     2256916349                      
system.ruby.IFETCH.hit_latency_hist::bucket_size           16                      
system.ruby.IFETCH.hit_latency_hist::max_bucket          159                      
system.ruby.IFETCH.hit_latency_hist::samples   2256916349                      
system.ruby.IFETCH.hit_latency_hist::mean     1.000145                      
system.ruby.IFETCH.hit_latency_hist::gmean     1.000016                      
system.ruby.IFETCH.hit_latency_hist::stdev     0.074498                      
system.ruby.IFETCH.hit_latency_hist      |  2256905254    100.00%    100.00% |        9398      0.00%    100.00% |          36      0.00%    100.00% |        1293      0.00%    100.00% |          97      0.00%    100.00% |         269      0.00%    100.00% |           1      0.00%    100.00% |           1      0.00%    100.00% |           0      0.00%    100.00% |           0      0.00%    100.00%
system.ruby.IFETCH.hit_latency_hist::total   2256916349                      
system.ruby.RMW_Read.latency_hist::bucket_size           16                      
system.ruby.RMW_Read.latency_hist::max_bucket          159                      
system.ruby.RMW_Read.latency_hist::samples          452                      
system.ruby.RMW_Read.latency_hist::mean      2.210177                      
system.ruby.RMW_Read.latency_hist::gmean     1.123775                      
system.ruby.RMW_Read.latency_hist::stdev     7.773831                      
system.ruby.RMW_Read.latency_hist        |         438     96.90%     96.90% |           9      1.99%     98.89% |           1      0.22%     99.12% |           0      0.00%     99.12% |           3      0.66%     99.78% |           1      0.22%    100.00% |           0      0.00%    100.00% |           0      0.00%    100.00% |           0      0.00%    100.00% |           0      0.00%    100.00%
system.ruby.RMW_Read.latency_hist::total          452                      
system.ruby.RMW_Read.hit_latency_hist::bucket_size           16                      
system.ruby.RMW_Read.hit_latency_hist::max_bucket          159                      
system.ruby.RMW_Read.hit_latency_hist::samples          452                      
system.ruby.RMW_Read.hit_latency_hist::mean     2.210177                      
system.ruby.RMW_Read.hit_latency_hist::gmean     1.123775                      
system.ruby.RMW_Read.hit_latency_hist::stdev     7.773831                      
system.ruby.RMW_Read.hit_latency_hist    |         438     96.90%     96.90% |           9      1.99%     98.89% |           1      0.22%     99.12% |           0      0.00%     99.12% |           3      0.66%     99.78% |           1      0.22%    100.00% |           0      0.00%    100.00% |           0      0.00%    100.00% |           0      0.00%    100.00% |           0      0.00%    100.00%
system.ruby.RMW_Read.hit_latency_hist::total          452                      
system.ruby.Locked_RMW_Read.latency_hist::bucket_size           16                      
system.ruby.Locked_RMW_Read.latency_hist::max_bucket          159                      
system.ruby.Locked_RMW_Read.latency_hist::samples     50718283                      
system.ruby.Locked_RMW_Read.latency_hist::mean     1.000272                      
system.ruby.Locked_RMW_Read.latency_hist::gmean     1.000035                      
system.ruby.Locked_RMW_Read.latency_hist::stdev     0.087893                      
system.ruby.Locked_RMW_Read.latency_hist |    50717738    100.00%    100.00% |         533      0.00%    100.00% |           0      0.00%    100.00% |           3      0.00%    100.00% |           1      0.00%    100.00% |           6      0.00%    100.00% |           1      0.00%    100.00% |           1      0.00%    100.00% |           0      0.00%    100.00% |           0      0.00%    100.00%
system.ruby.Locked_RMW_Read.latency_hist::total     50718283                      
system.ruby.Locked_RMW_Read.hit_latency_hist::bucket_size           16                      
system.ruby.Locked_RMW_Read.hit_latency_hist::max_bucket          159                      
system.ruby.Locked_RMW_Read.hit_latency_hist::samples     50718283                      
system.ruby.Locked_RMW_Read.hit_latency_hist::mean     1.000272                      
system.ruby.Locked_RMW_Read.hit_latency_hist::gmean     1.000035                      
system.ruby.Locked_RMW_Read.hit_latency_hist::stdev     0.087893                      
system.ruby.Locked_RMW_Read.hit_latency_hist |    50717738    100.00%    100.00% |         533      0.00%    100.00% |           0      0.00%    100.00% |           3      0.00%    100.00% |           1      0.00%    100.00% |           6      0.00%    100.00% |           1      0.00%    100.00% |           1      0.00%    100.00% |           0      0.00%    100.00% |           0      0.00%    100.00%
system.ruby.Locked_RMW_Read.hit_latency_hist::total     50718283                      
system.ruby.Locked_RMW_Write.latency_hist::bucket_size            1                      
system.ruby.Locked_RMW_Write.latency_hist::max_bucket            9                      
system.ruby.Locked_RMW_Write.latency_hist::samples     50718283                      
system.ruby.Locked_RMW_Write.latency_hist::mean            1                      
system.ruby.Locked_RMW_Write.latency_hist::gmean            1                      
system.ruby.Locked_RMW_Write.latency_hist |           0      0.00%      0.00% |    50718283    100.00%    100.00% |           0      0.00%    100.00% |           0      0.00%    100.00% |           0      0.00%    100.00% |           0      0.00%    100.00% |           0      0.00%    100.00% |           0      0.00%    100.00% |           0      0.00%    100.00% |           0      0.00%    100.00%
system.ruby.Locked_RMW_Write.latency_hist::total     50718283                      
system.ruby.Locked_RMW_Write.hit_latency_hist::bucket_size            1                      
system.ruby.Locked_RMW_Write.hit_latency_hist::max_bucket            9                      
system.ruby.Locked_RMW_Write.hit_latency_hist::samples     50718283                      
system.ruby.Locked_RMW_Write.hit_latency_hist::mean            1                      
system.ruby.Locked_RMW_Write.hit_latency_hist::gmean            1                      
system.ruby.Locked_RMW_Write.hit_latency_hist |           0      0.00%      0.00% |    50718283    100.00%    100.00% |           0      0.00%    100.00% |           0      0.00%    100.00% |           0      0.00%    100.00% |           0      0.00%    100.00% |           0      0.00%    100.00% |           0      0.00%    100.00% |           0      0.00%    100.00% |           0      0.00%    100.00%
system.ruby.Locked_RMW_Write.hit_latency_hist::total     50718283                      
system.ruby.Directory_Controller.Fetch        3012822      0.00%      0.00%
system.ruby.Directory_Controller.Data         2170234      0.00%      0.00%
system.ruby.Directory_Controller.Memory_Data      3012822      0.00%      0.00%
system.ruby.Directory_Controller.Memory_Ack      2170234      0.00%      0.00%
system.ruby.Directory_Controller.CleanReplacement       678748      0.00%      0.00%
system.ruby.Directory_Controller.I.Fetch      3012822      0.00%      0.00%
system.ruby.Directory_Controller.M.Data       2170234      0.00%      0.00%
system.ruby.Directory_Controller.M.CleanReplacement       678748      0.00%      0.00%
system.ruby.Directory_Controller.IM.Memory_Data      3012822      0.00%      0.00%
system.ruby.Directory_Controller.MI.Memory_Ack      2170234      0.00%      0.00%
system.ruby.L0Cache_Controller.Load      |   383299297     87.07%     87.07% |    28471647      6.47%     93.53% |    28471647      6.47%    100.00%
system.ruby.L0Cache_Controller.Load::total    440242591                      
system.ruby.L0Cache_Controller.Ifetch    |  2107904969     93.40%     93.40% |    74505690      3.30%     96.70% |    74505690      3.30%    100.00%
system.ruby.L0Cache_Controller.Ifetch::total   2256916349                      
system.ruby.L0Cache_Controller.Store     |   328911989     99.90%     99.90% |      161888      0.05%     99.95% |      161888      0.05%    100.00%
system.ruby.L0Cache_Controller.Store::total    329235765                      
system.ruby.L0Cache_Controller.Inv       |        9945      0.87%      0.87% |      558283     49.04%     49.91% |      570258     50.09%    100.00%
system.ruby.L0Cache_Controller.Inv::total      1138486                      
system.ruby.L0Cache_Controller.L0_Replacement |     2171757     37.98%     37.98% |     1773926     31.02%     69.00% |     1772970     31.00%    100.00%
system.ruby.L0Cache_Controller.L0_Replacement::total      5718653                      
system.ruby.L0Cache_Controller.Data      |          29      0.00%      0.00% |      531297     49.01%     49.01% |      552695     50.99%    100.00%
system.ruby.L0Cache_Controller.Data::total      1084021                      
system.ruby.L0Cache_Controller.Data_Exclusive |     2182392     46.05%     46.05% |     1291680     27.26%     73.31% |     1264637     26.69%    100.00%
system.ruby.L0Cache_Controller.Data_Exclusive::total      4738709                      
system.ruby.L0Cache_Controller.NP.Load   |        2777      0.08%      0.08% |     1815644     50.04%     50.12% |     1809950     49.88%    100.00%
system.ruby.L0Cache_Controller.NP.Load::total      3628371                      
system.ruby.L0Cache_Controller.NP.Ifetch |        6631     59.34%     59.34% |        2255     20.18%     79.52% |        2288     20.48%    100.00%
system.ruby.L0Cache_Controller.NP.Ifetch::total        11174                      
system.ruby.L0Cache_Controller.NP.Store  |     2172995     99.53%     99.53% |        5077      0.23%     99.77% |        5093      0.23%    100.00%
system.ruby.L0Cache_Controller.NP.Store::total      2183165                      
system.ruby.L0Cache_Controller.NP.Inv    |           0      0.00%      0.00% |      509754     49.20%     49.20% |      526416     50.80%    100.00%
system.ruby.L0Cache_Controller.NP.Inv::total      1036170                      
system.ruby.L0Cache_Controller.S.Load    |    11278315     31.31%     31.31% |    10981447     30.49%     61.80% |    13758847     38.20%    100.00%
system.ruby.L0Cache_Controller.S.Load::total     36018609                      
system.ruby.L0Cache_Controller.S.Ifetch  |          48      0.00%      0.00% |    74503305     50.00%     50.00% |    74503337     50.00%    100.00%
system.ruby.L0Cache_Controller.S.Ifetch::total    149006690                      
system.ruby.L0Cache_Controller.S.Store   |          18     90.00%     90.00% |           1      5.00%     95.00% |           1      5.00%    100.00%
system.ruby.L0Cache_Controller.S.Store::total           20                      
system.ruby.L0Cache_Controller.S.Inv     |           3      0.01%      0.01% |       17728     44.10%     44.11% |       22464     55.89%    100.00%
system.ruby.L0Cache_Controller.S.Inv::total        40195                      
system.ruby.L0Cache_Controller.S.L0_Replacement |           5      0.00%      0.00% |      513103     49.20%     49.20% |      529760     50.80%    100.00%
system.ruby.L0Cache_Controller.S.L0_Replacement::total      1042868                      
system.ruby.L0Cache_Controller.E.Load    |    54562394     65.75%     65.75% |    15593987     18.79%     84.55% |    12822325     15.45%    100.00%
system.ruby.L0Cache_Controller.E.Load::total     82978706                      
system.ruby.L0Cache_Controller.E.Ifetch  |  2107898290    100.00%    100.00% |         130      0.00%    100.00% |          65      0.00%    100.00%
system.ruby.L0Cache_Controller.E.Ifetch::total   2107898485                      
[...]
system.ruby.L0Cache_Controller.SM.Data_Exclusive |          18     90.00%     90.00% |           1      5.00%     95.00% |           1      5.00%    100.00%
system.ruby.L0Cache_Controller.SM.Data_Exclusive::total           20                      
system.ruby.L1Cache_Controller.Load      |        9408      0.26%      0.26% |     1817899     49.95%     50.21% |     1812238     49.79%    100.00%
system.ruby.L1Cache_Controller.Load::total      3639545                      
system.ruby.L1Cache_Controller.Store     |     2173013     99.53%     99.53% |        5078      0.23%     99.77% |        5094      0.23%    100.00%
system.ruby.L1Cache_Controller.Store::total      2183185                      
system.ruby.L1Cache_Controller.WriteBack |     2171752     46.45%     46.45% |     1260823     26.96%     73.41% |     1243210     26.59%    100.00%
system.ruby.L1Cache_Controller.WriteBack::total      4675785                      
system.ruby.L1Cache_Controller.L0_DataAck |        3685     80.95%     80.95% |         404      8.88%     89.83% |         463     10.17%    100.00%
system.ruby.L1Cache_Controller.L0_DataAck::total         4552                      
system.ruby.L1Cache_Controller.Inv       |        4240      0.53%      0.53% |      395435     49.84%     50.37% |      393730     49.63%    100.00%
system.ruby.L1Cache_Controller.Inv::total       793405                      
system.ruby.L1Cache_Controller.L0_Invalidate_Own |       18710      0.83%      0.83% |     1095622     48.82%     49.66% |     1129786     50.34%    100.00%
system.ruby.L1Cache_Controller.L0_Invalidate_Own::total      2244118                      
system.ruby.L1Cache_Controller.L0_Invalidate_Else |        1180      3.59%      3.59% |       20944     63.75%     67.34% |       10730     32.66%    100.00%
system.ruby.L1Cache_Controller.L0_Invalidate_Else::total        32854                      
system.ruby.L1Cache_Controller.L1_Replacement |     2177250     39.74%     39.74% |     1647701     30.07%     69.82% |     1653720     30.18%    100.00%
system.ruby.L1Cache_Controller.L1_Replacement::total      5478671                      
system.ruby.L1Cache_Controller.Fwd_GETX  |           1     16.67%     16.67% |           4     66.67%     83.33% |           1     16.67%    100.00%
system.ruby.L1Cache_Controller.Fwd_GETX::total            6                      
system.ruby.L1Cache_Controller.Fwd_GETS  |          12      0.04%      0.04% |       23827     81.98%     82.02% |        5227     17.98%    100.00%
system.ruby.L1Cache_Controller.Fwd_GETS::total        29066                      
system.ruby.L1Cache_Controller.Data_Exclusive |        9267      0.41%      0.41% |     1125568     50.22%     50.63% |     1106510     49.37%    100.00%
system.ruby.L1Cache_Controller.Data_Exclusive::total      2241345                      
system.ruby.L1Cache_Controller.DataS_fromL1 |          16      0.06%      0.06% |        5226     17.98%     18.03% |       23824     81.97%    100.00%
system.ruby.L1Cache_Controller.DataS_fromL1::total        29066                      
system.ruby.L1Cache_Controller.Data_all_Acks |     2172991     67.36%     67.36% |      523972     16.24%     83.61% |      528748     16.39%    100.00%
system.ruby.L1Cache_Controller.Data_all_Acks::total      3225711                      
system.ruby.L1Cache_Controller.L0_Ack    |        6260      0.55%      0.55% |      557879     49.20%     49.75% |      569795     50.25%    100.00%
system.ruby.L1Cache_Controller.L0_Ack::total      1133934                      
system.ruby.L1Cache_Controller.Ack       |          24     92.31%     92.31% |           1      3.85%     96.15% |           1      3.85%    100.00%
system.ruby.L1Cache_Controller.Ack::total           26                      
system.ruby.L1Cache_Controller.Ack_all   |          18     90.00%     90.00% |           1      5.00%     95.00% |           1      5.00%    100.00%
system.ruby.L1Cache_Controller.Ack_all::total           20                      
system.ruby.L1Cache_Controller.WB_Ack    |     2177250     49.64%     49.64% |     1103671     25.16%     74.81% |     1104939     25.19%    100.00%
system.ruby.L1Cache_Controller.WB_Ack::total      4385860                      
system.ruby.L1Cache_Controller.NP.Load   |        9293      0.28%      0.28% |     1649690     49.79%     50.08% |     1653990     49.92%    100.00%
system.ruby.L1Cache_Controller.NP.Load::total      3312973                      
system.ruby.L1Cache_Controller.NP.Store  |     2172981     99.53%     99.53% |        5076      0.23%     99.77% |        5092      0.23%    100.00%
system.ruby.L1Cache_Controller.NP.Store::total      2183149                      
system.ruby.L1Cache_Controller.NP.Inv    |           0      0.00%      0.00% |      392448     50.00%     50.00% |      392446     50.00%    100.00%
system.ruby.L1Cache_Controller.NP.Inv::total       784894                      
system.ruby.L1Cache_Controller.I.L1_Replacement |           0      0.00%      0.00% |           2    100.00%    100.00% |           0      0.00%    100.00%
system.ruby.L1Cache_Controller.I.L1_Replacement::total            2                      
system.ruby.L1Cache_Controller.S.Load    |           1     50.00%     50.00% |           0      0.00%     50.00% |           1     50.00%    100.00%
system.ruby.L1Cache_Controller.S.Load::total            2                      
system.ruby.L1Cache_Controller.S.Store   |          18     90.00%     90.00% |           1      5.00%     95.00% |           1      5.00%    100.00%
system.ruby.L1Cache_Controller.S.Store::total           20                      
system.ruby.L1Cache_Controller.S.L0_Invalidate_Own |           0      0.00%      0.00% |      527385     49.01%     49.01% |      548778     50.99%    100.00%
system.ruby.L1Cache_Controller.S.L0_Invalidate_Own::total      1076163                      
system.ruby.L1Cache_Controller.S.L0_Invalidate_Else |           3      1.49%      1.49% |          97     48.02%     49.50% |         102     50.50%    100.00%
system.ruby.L1Cache_Controller.S.L0_Invalidate_Else::total          202                      
system.ruby.L1Cache_Controller.SS.Load   |           2      0.02%      0.02% |        7175     57.90%     57.92% |        5214     42.08%    100.00%
system.ruby.L1Cache_Controller.SS.Load::total        12391                      
system.ruby.L1Cache_Controller.SS.Inv    |          13      5.75%      5.75% |         105     46.46%     52.21% |         108     47.79%    100.00%
system.ruby.L1Cache_Controller.SS.Inv::total          226                      
system.ruby.L1Cache_Controller.SS.L1_Replacement |           0      0.00%      0.00% |      544028     49.78%     49.78% |      548781     50.22%    100.00%
system.ruby.L1Cache_Controller.SS.L1_Replacement::total      1092809                      
system.ruby.L1Cache_Controller.E.WriteBack |         852      0.04%      0.04% |     1095453     50.20%     50.24% |     1085686     49.76%    100.00%
system.ruby.L1Cache_Controller.E.WriteBack::total      2181991                      
system.ruby.L1Cache_Controller.E.L0_Invalidate_Own |        7737     17.96%     17.96% |       19749     45.83%     63.79% |       15602     36.21%    100.00%
system.ruby.L1Cache_Controller.E.L0_Invalidate_Own::total        43088                      
system.ruby.L1Cache_Controller.E.L0_Invalidate_Else |          78      0.50%      0.50% |       10367     66.18%     66.68% |        5220     33.32%    100.00%
system.ruby.L1Cache_Controller.E.L0_Invalidate_Else::total        15665                      
system.ruby.L1Cache_Controller.EE.Load   |           5     50.00%     50.00% |           4     40.00%     90.00% |           1     10.00%    100.00%
system.ruby.L1Cache_Controller.EE.Load::total           10                      
system.ruby.L1Cache_Controller.EE.Inv    |          63      4.89%      4.89% |        1226     95.11%    100.00% |           0      0.00%    100.00%
system.ruby.L1Cache_Controller.EE.Inv::total         1289                      
system.ruby.L1Cache_Controller.EE.L1_Replacement |        6148     15.12%     15.12% |       19355     47.59%     62.71% |       15164     37.29%    100.00%
system.ruby.L1Cache_Controller.EE.L1_Replacement::total        40667                      
system.ruby.L1Cache_Controller.EE.Fwd_GETX |           1     33.33%     33.33% |           1     33.33%     66.67% |           1     33.33%    100.00%
system.ruby.L1Cache_Controller.EE.Fwd_GETX::total            3                      
system.ruby.L1Cache_Controller.EE.Fwd_GETS |           4      0.03%      0.03% |        9136     63.63%     63.66% |        5218     36.34%    100.00%
system.ruby.L1Cache_Controller.EE.Fwd_GETS::total        14358                      
system.ruby.L1Cache_Controller.M.WriteBack |     2170900     87.05%     87.05% |      165370      6.63%     93.68% |      157524      6.32%    100.00%
system.ruby.L1Cache_Controller.M.WriteBack::total      2493794                      
system.ruby.L1Cache_Controller.M.L0_Invalidate_Own |        1618     57.62%     57.62% |         677     24.11%     81.73% |         513     18.27%    100.00%
system.ruby.L1Cache_Controller.M.L0_Invalidate_Own::total         2808                      
system.ruby.L1Cache_Controller.M.L0_Invalidate_Else |         509     90.89%     90.89% |           8      1.43%     92.32% |          43      7.68%    100.00%
system.ruby.L1Cache_Controller.M.L0_Invalidate_Else::total          560                      
system.ruby.L1Cache_Controller.MM.Load   |         107      0.03%      0.03% |      161030     51.26%     51.29% |      153032     48.71%    100.00%
system.ruby.L1Cache_Controller.MM.Load::total       314169                      
system.ruby.L1Cache_Controller.MM.Store  |          14     87.50%     87.50% |           1      6.25%     93.75% |           1      6.25%    100.00%
system.ruby.L1Cache_Controller.MM.Store::total           16                      
system.ruby.L1Cache_Controller.MM.Inv    |        4164     59.52%     59.52% |        1656     23.67%     83.19% |        1176     16.81%    100.00%
system.ruby.L1Cache_Controller.MM.Inv::total         6996                      
system.ruby.L1Cache_Controller.MM.L1_Replacement |     2171102     49.97%     49.97% |     1084316     24.95%     74.92% |     1089775     25.08%    100.00%
system.ruby.L1Cache_Controller.MM.L1_Replacement::total      4345193                      
system.ruby.L1Cache_Controller.MM.Fwd_GETX |           0      0.00%      0.00% |           3    100.00%    100.00% |           0      0.00%    100.00%
system.ruby.L1Cache_Controller.MM.Fwd_GETX::total            3                      
system.ruby.L1Cache_Controller.MM.Fwd_GETS |           8      0.05%      0.05% |       14691     99.88%     99.94% |           9      0.06%    100.00%
system.ruby.L1Cache_Controller.MM.Fwd_GETS::total        14708                      
system.ruby.L1Cache_Controller.IS.Data_Exclusive |        9267      0.41%      0.41% |     1125568     50.22%     50.63% |     1106510     49.37%    100.00%
system.ruby.L1Cache_Controller.IS.Data_Exclusive::total      2241345                      
system.ruby.L1Cache_Controller.IS.DataS_fromL1 |          16      0.06%      0.06% |        5226     17.98%     18.03% |       23824     81.97%    100.00%
system.ruby.L1Cache_Controller.IS.DataS_fromL1::total        29066                      
system.ruby.L1Cache_Controller.IS.Data_all_Acks |          10      0.00%      0.00% |      518896     49.77%     49.77% |      523656     50.23%    100.00%
system.ruby.L1Cache_Controller.IS.Data_all_Acks::total      1042562                      
system.ruby.L1Cache_Controller.IM.Data_all_Acks |     2172981     99.53%     99.53% |        5076      0.23%     99.77% |        5092      0.23%    100.00%
system.ruby.L1Cache_Controller.IM.Data_all_Acks::total      2183149                      
system.ruby.L1Cache_Controller.SM.Ack    |          24     92.31%     92.31% |           1      3.85%     96.15% |           1      3.85%    100.00%
system.ruby.L1Cache_Controller.SM.Ack::total           26                      
system.ruby.L1Cache_Controller.SM.Ack_all |          18     90.00%     90.00% |           1      5.00%     95.00% |           1      5.00%    100.00%
system.ruby.L1Cache_Controller.SM.Ack_all::total           20                      
system.ruby.L1Cache_Controller.M_I.WB_Ack |     2177250     49.64%     49.64% |     1103671     25.16%     74.81% |     1104939     25.19%    100.00%
system.ruby.L1Cache_Controller.M_I.WB_Ack::total      4385860                      
system.ruby.L1Cache_Controller.S_IL0.L0_Invalidate_Own |           0      0.00%      0.00% |      527385     49.01%     49.01% |      548778     50.99%    100.00%
system.ruby.L1Cache_Controller.S_IL0.L0_Invalidate_Own::total      1076163                      
system.ruby.L1Cache_Controller.S_IL0.L0_Invalidate_Else |           3      1.49%      1.49% |          97     48.02%     49.50% |         102     50.50%    100.00%
system.ruby.L1Cache_Controller.S_IL0.L0_Invalidate_Else::total          202                      
system.ruby.L1Cache_Controller.S_IL0.L0_Ack |           3      0.00%      0.00% |      527482     49.01%     49.01% |      548880     50.99%    100.00%
system.ruby.L1Cache_Controller.S_IL0.L0_Ack::total      1076365                      
system.ruby.L1Cache_Controller.E_IL0.L0_DataAck |        1594     65.70%     65.70% |         394     16.24%     81.95% |         438     18.05%    100.00%
system.ruby.L1Cache_Controller.E_IL0.L0_DataAck::total         2426                      
system.ruby.L1Cache_Controller.E_IL0.L0_Invalidate_Own |        7737     17.96%     17.96% |       19749     45.83%     63.79% |       15602     36.21%    100.00%
system.ruby.L1Cache_Controller.E_IL0.L0_Invalidate_Own::total        43088                      
system.ruby.L1Cache_Controller.E_IL0.L0_Invalidate_Else |          78      0.50%      0.50% |       10367     66.18%     66.68% |        5220     33.32%    100.00%
system.ruby.L1Cache_Controller.E_IL0.L0_Invalidate_Else::total        15665                      
system.ruby.L1Cache_Controller.E_IL0.L0_Ack |        6221     11.04%     11.04% |       29722     52.77%     63.81% |       20384     36.19%    100.00%
system.ruby.L1Cache_Controller.E_IL0.L0_Ack::total        56327                      
system.ruby.L1Cache_Controller.M_IL0.L0_DataAck |        2091     98.35%     98.35% |          10      0.47%     98.82% |          25      1.18%    100.00%
system.ruby.L1Cache_Controller.M_IL0.L0_DataAck::total         2126                      
system.ruby.L1Cache_Controller.M_IL0.L0_Invalidate_Own |        1618     57.62%     57.62% |         677     24.11%     81.73% |         513     18.27%    100.00%
system.ruby.L1Cache_Controller.M_IL0.L0_Invalidate_Own::total         2808                      
system.ruby.L1Cache_Controller.M_IL0.L0_Invalidate_Else |         509     90.89%     90.89% |           8      1.43%     92.32% |          43      7.68%    100.00%
system.ruby.L1Cache_Controller.M_IL0.L0_Invalidate_Else::total          560                      
system.ruby.L1Cache_Controller.M_IL0.L0_Ack |          36      2.90%      2.90% |         675     54.35%     57.25% |         531     42.75%    100.00%
system.ruby.L1Cache_Controller.M_IL0.L0_Ack::total         1242                      
system.ruby.L2Cache_Controller.L1_GETS        3318512      0.00%      0.00%
system.ruby.L2Cache_Controller.L1_GETX        2183154      0.00%      0.00%
system.ruby.L2Cache_Controller.L1_UPGRADE           20      0.00%      0.00%
system.ruby.L2Cache_Controller.L1_PUTX        4385860      0.00%      0.00%
system.ruby.L2Cache_Controller.L2_Replacement      2165993      0.00%      0.00%
system.ruby.L2Cache_Controller.L2_Replacement_clean       682989      0.00%      0.00%
system.ruby.L2Cache_Controller.Mem_Data       3012822      0.00%      0.00%
system.ruby.L2Cache_Controller.Mem_Ack        2848982      0.00%      0.00%
system.ruby.L2Cache_Controller.WB_Data          18628      0.00%      0.00%
system.ruby.L2Cache_Controller.WB_Data_clean        17434      0.00%      0.00%
system.ruby.L2Cache_Controller.Ack             392550      0.00%      0.00%
system.ruby.L2Cache_Controller.Ack_all         393833      0.00%      0.00%
system.ruby.L2Cache_Controller.Unblock          29066      0.00%      0.00%
system.ruby.L2Cache_Controller.Exclusive_Unblock      4424514      0.00%      0.00%
system.ruby.L2Cache_Controller.NP.L1_GETS       831323      0.00%      0.00%
system.ruby.L2Cache_Controller.NP.L1_GETX      2181499      0.00%      0.00%
system.ruby.L2Cache_Controller.SS.L1_GETS        39954      0.00%      0.00%
system.ruby.L2Cache_Controller.SS.L1_UPGRADE           20      0.00%      0.00%
system.ruby.L2Cache_Controller.SS.L2_Replacement        11491      0.00%      0.00%
system.ruby.L2Cache_Controller.SS.L2_Replacement_clean       381053      0.00%      0.00%
system.ruby.L2Cache_Controller.M.L1_GETS      1911326      0.00%      0.00%
system.ruby.L2Cache_Controller.M.L1_GETX         1644      0.00%      0.00%
system.ruby.L2Cache_Controller.M.L2_Replacement      2153241      0.00%      0.00%
system.ruby.L2Cache_Controller.M.L2_Replacement_clean       294912      0.00%      0.00%
system.ruby.L2Cache_Controller.MT.L1_GETS        29066      0.00%      0.00%
system.ruby.L2Cache_Controller.MT.L1_GETX            6      0.00%      0.00%
system.ruby.L2Cache_Controller.MT.L1_PUTX      4385860      0.00%      0.00%
system.ruby.L2Cache_Controller.MT.L2_Replacement         1261      0.00%      0.00%
system.ruby.L2Cache_Controller.MT.L2_Replacement_clean         7024      0.00%      0.00%
system.ruby.L2Cache_Controller.M_I.L1_GETS           13      0.00%      0.00%
system.ruby.L2Cache_Controller.M_I.L1_GETX            3      0.00%      0.00%
system.ruby.L2Cache_Controller.M_I.Mem_Ack      2848982      0.00%      0.00%
system.ruby.L2Cache_Controller.MT_I.WB_Data            7      0.00%      0.00%
system.ruby.L2Cache_Controller.MT_I.WB_Data_clean           18      0.00%      0.00%
system.ruby.L2Cache_Controller.MT_I.Ack_all         1236      0.00%      0.00%
system.ruby.L2Cache_Controller.MCT_I.WB_Data         4241      0.00%      0.00%
system.ruby.L2Cache_Controller.MCT_I.WB_Data_clean         2730      0.00%      0.00%
system.ruby.L2Cache_Controller.MCT_I.Ack_all           53      0.00%      0.00%
system.ruby.L2Cache_Controller.I_I.Ack         381055      0.00%      0.00%
system.ruby.L2Cache_Controller.I_I.Ack_all       381053      0.00%      0.00%
system.ruby.L2Cache_Controller.S_I.Ack          11495      0.00%      0.00%
system.ruby.L2Cache_Controller.S_I.Ack_all        11491      0.00%      0.00%
system.ruby.L2Cache_Controller.ISS.L1_GETS       501304      0.00%      0.00%
system.ruby.L2Cache_Controller.ISS.Mem_Data       330019      0.00%      0.00%
system.ruby.L2Cache_Controller.IS.Mem_Data       501304      0.00%      0.00%
system.ruby.L2Cache_Controller.IM.L1_GETX            2      0.00%      0.00%
system.ruby.L2Cache_Controller.IM.Mem_Data      2181499      0.00%      0.00%
system.ruby.L2Cache_Controller.SS_MB.Exclusive_Unblock           20      0.00%      0.00%
system.ruby.L2Cache_Controller.MT_MB.L1_GETS         5523      0.00%      0.00%
system.ruby.L2Cache_Controller.MT_MB.Exclusive_Unblock      4424494      0.00%      0.00%
system.ruby.L2Cache_Controller.MT_IIB.L1_GETS            3      0.00%      0.00%
system.ruby.L2Cache_Controller.MT_IIB.WB_Data        14310      0.00%      0.00%
system.ruby.L2Cache_Controller.MT_IIB.WB_Data_clean        14553      0.00%      0.00%
system.ruby.L2Cache_Controller.MT_IIB.Unblock          203      0.00%      0.00%
system.ruby.L2Cache_Controller.MT_IB.WB_Data           70      0.00%      0.00%
system.ruby.L2Cache_Controller.MT_IB.WB_Data_clean          133      0.00%      0.00%
system.ruby.L2Cache_Controller.MT_SB.Unblock        28863      0.00%      0.00%

---------- End Simulation Statistics   ----------
