
---------- Begin Simulation Statistics ----------
sim_seconds                                  0.409065                       # Number of seconds simulated
sim_ticks                                409065194500                       # Number of ticks simulated
final_tick                               409065194500                       # Number of ticks from beginning of simulation (restored from checkpoints and never reset)
sim_freq                                 1000000000000                       # Frequency of simulated ticks
host_inst_rate                                 134440                       # Simulator instruction rate (inst/s)
host_op_rate                                   367259                       # Simulator op (including micro ops) rate (op/s)
host_tick_rate                              230964751                       # Simulator tick rate (ticks/s)
host_mem_usage                                 888148                       # Number of bytes of host memory used
host_seconds                                  1771.12                       # Real time elapsed on the host
sim_insts                                   238108342                       # Number of instructions simulated
sim_ops                                     650458836                       # Number of ops (including micro ops) simulated
system.voltage_domain.voltage                       1                       # Voltage in Volts
system.clk_domain.clock                          1000                       # Clock period in ticks
system.mem_ctrls.bytes_read::ruby.dir_cntrl0     18485952                       # Number of bytes read from this memory
system.mem_ctrls.bytes_read::total           18485952                       # Number of bytes read from this memory
system.mem_ctrls.num_reads::ruby.dir_cntrl0       288843                       # Number of read requests responded to by this memory
system.mem_ctrls.num_reads::total              288843                       # Number of read requests responded to by this memory
system.mem_ctrls.bw_read::ruby.dir_cntrl0     45190723                       # Total read bandwidth from this memory (bytes/s)
system.mem_ctrls.bw_read::total              45190723                       # Total read bandwidth from this memory (bytes/s)
system.mem_ctrls.bw_total::ruby.dir_cntrl0     45190723                       # Total bandwidth to/from this memory (bytes/s)
system.mem_ctrls.bw_total::total             45190723                       # Total bandwidth to/from this memory (bytes/s)
system.mem_ctrls.readReqs                      288843                       # Number of read requests accepted
system.mem_ctrls.writeReqs                          0                       # Number of write requests accepted
system.mem_ctrls.readBursts                    288843                       # Number of DRAM read bursts, including those serviced by the write queue
system.mem_ctrls.writeBursts                        0                       # Number of DRAM write bursts, including those merged in the write queue
system.mem_ctrls.bytesReadDRAM               18485952                       # Total number of bytes read from DRAM
system.mem_ctrls.bytesReadWrQ                       0                       # Total number of bytes read from write queue
system.mem_ctrls.bytesWritten                       0                       # Total number of bytes written to DRAM
system.mem_ctrls.bytesReadSys                18485952                       # Total read bytes from the system interface side
system.mem_ctrls.bytesWrittenSys                    0                       # Total written bytes from the system interface side
system.mem_ctrls.servicedByWrQ                      0                       # Number of DRAM read bursts serviced by the write queue
system.mem_ctrls.mergedWrBursts                     0                       # Number of DRAM write bursts merged with an existing one
system.mem_ctrls.neitherReadNorWriteReqs            0                       # Number of requests that are neither read nor write
system.mem_ctrls.perBankRdBursts::0             18021                       # Per bank write bursts
system.mem_ctrls.perBankRdBursts::1             18065                       # Per bank write bursts
system.mem_ctrls.perBankRdBursts::2             17986                       # Per bank write bursts
system.mem_ctrls.perBankRdBursts::3             17904                       # Per bank write bursts
system.mem_ctrls.perBankRdBursts::4             17960                       # Per bank write bursts
system.mem_ctrls.perBankRdBursts::5             17861                       # Per bank write bursts
system.mem_ctrls.perBankRdBursts::6             18210                       # Per bank write bursts
system.mem_ctrls.perBankRdBursts::7             18123                       # Per bank write bursts
system.mem_ctrls.perBankRdBursts::8             18046                       # Per bank write bursts
system.mem_ctrls.perBankRdBursts::9             18210                       # Per bank write bursts
system.mem_ctrls.perBankRdBursts::10            18282                       # Per bank write bursts
system.mem_ctrls.perBankRdBursts::11            18239                       # Per bank write bursts
system.mem_ctrls.perBankRdBursts::12            18010                       # Per bank write bursts
system.mem_ctrls.perBankRdBursts::13            18004                       # Per bank write bursts
system.mem_ctrls.perBankRdBursts::14            17949                       # Per bank write bursts
system.mem_ctrls.perBankRdBursts::15            17973                       # Per bank write bursts
system.mem_ctrls.perBankWrBursts::0                 0                       # Per bank write bursts
system.mem_ctrls.perBankWrBursts::1                 0                       # Per bank write bursts
system.mem_ctrls.perBankWrBursts::2                 0                       # Per bank write bursts
system.mem_ctrls.perBankWrBursts::3                 0                       # Per bank write bursts
system.mem_ctrls.perBankWrBursts::4                 0                       # Per bank write bursts
system.mem_ctrls.perBankWrBursts::5                 0                       # Per bank write bursts
system.mem_ctrls.perBankWrBursts::6                 0                       # Per bank write bursts
system.mem_ctrls.perBankWrBursts::7                 0                       # Per bank write bursts
system.mem_ctrls.perBankWrBursts::8                 0                       # Per bank write bursts
system.mem_ctrls.perBankWrBursts::9                 0                       # Per bank write bursts
system.mem_ctrls.perBankWrBursts::10                0                       # Per bank write bursts
system.mem_ctrls.perBankWrBursts::11                0                       # Per bank write bursts
system.mem_ctrls.perBankWrBursts::12                0                       # Per bank write bursts
system.mem_ctrls.perBankWrBursts::13                0                       # Per bank write bursts
system.mem_ctrls.perBankWrBursts::14                0                       # Per bank write bursts
system.mem_ctrls.perBankWrBursts::15                0                       # Per bank write bursts
system.mem_ctrls.numRdRetry                         0                       # Number of times read queue was full causing retry
system.mem_ctrls.numWrRetry                         0                       # Number of times write queue was full causing retry
system.mem_ctrls.totGap                  409065114000                       # Total gap between requests
system.mem_ctrls.readPktSize::0                     0                       # Read request sizes (log2)
system.mem_ctrls.readPktSize::1                     0                       # Read request sizes (log2)
system.mem_ctrls.readPktSize::2                     0                       # Read request sizes (log2)
system.mem_ctrls.readPktSize::3                     0                       # Read request sizes (log2)
system.mem_ctrls.readPktSize::4                     0                       # Read request sizes (log2)
system.mem_ctrls.readPktSize::5                     0                       # Read request sizes (log2)
system.mem_ctrls.readPktSize::6                288843                       # Read request sizes (log2)
system.mem_ctrls.writePktSize::0                    0                       # Write request sizes (log2)
system.mem_ctrls.writePktSize::1                    0                       # Write request sizes (log2)
system.mem_ctrls.writePktSize::2                    0                       # Write request sizes (log2)
system.mem_ctrls.writePktSize::3                    0                       # Write request sizes (log2)
system.mem_ctrls.writePktSize::4                    0                       # Write request sizes (log2)
system.mem_ctrls.writePktSize::5                    0                       # Write request sizes (log2)
system.mem_ctrls.writePktSize::6                    0                       # Write request sizes (log2)
system.mem_ctrls.rdQLenPdf::0                  288842                       # What read queue length does an incoming req see
system.mem_ctrls.rdQLenPdf::1                       1                       # What read queue length does an incoming req see
system.mem_ctrls.rdQLenPdf::2                       0                       # What read queue length does an incoming req see
system.mem_ctrls.rdQLenPdf::3                       0                       # What read queue length does an incoming req see
system.mem_ctrls.rdQLenPdf::4                       0                       # What read queue length does an incoming req see
system.mem_ctrls.rdQLenPdf::5                       0                       # What read queue length does an incoming req see
system.mem_ctrls.rdQLenPdf::6                       0                       # What read queue length does an incoming req see
system.mem_ctrls.rdQLenPdf::7                       0                       # What read queue length does an incoming req see
system.mem_ctrls.rdQLenPdf::8                       0                       # What read queue length does an incoming req see
system.mem_ctrls.rdQLenPdf::9                       0                       # What read queue length does an incoming req see
system.mem_ctrls.rdQLenPdf::10                      0                       # What read queue length does an incoming req see
system.mem_ctrls.rdQLenPdf::11                      0                       # What read queue length does an incoming req see
system.mem_ctrls.rdQLenPdf::12                      0                       # What read queue length does an incoming req see
system.mem_ctrls.rdQLenPdf::13                      0                       # What read queue length does an incoming req see
system.mem_ctrls.rdQLenPdf::14                      0                       # What read queue length does an incoming req see
system.mem_ctrls.rdQLenPdf::15                      0                       # What read queue length does an incoming req see
system.mem_ctrls.rdQLenPdf::16                      0                       # What read queue length does an incoming req see
system.mem_ctrls.rdQLenPdf::17                      0                       # What read queue length does an incoming req see
system.mem_ctrls.rdQLenPdf::18                      0                       # What read queue length does an incoming req see
system.mem_ctrls.rdQLenPdf::19                      0                       # What read queue length does an incoming req see
system.mem_ctrls.rdQLenPdf::20                      0                       # What read queue length does an incoming req see
system.mem_ctrls.rdQLenPdf::21                      0                       # What read queue length does an incoming req see
system.mem_ctrls.rdQLenPdf::22                      0                       # What read queue length does an incoming req see
system.mem_ctrls.rdQLenPdf::23                      0                       # What read queue length does an incoming req see
system.mem_ctrls.rdQLenPdf::24                      0                       # What read queue length does an incoming req see
system.mem_ctrls.rdQLenPdf::25                      0                       # What read queue length does an incoming req see
system.mem_ctrls.rdQLenPdf::26                      0                       # What read queue length does an incoming req see
system.mem_ctrls.rdQLenPdf::27                      0                       # What read queue length does an incoming req see
system.mem_ctrls.rdQLenPdf::28                      0                       # What read queue length does an incoming req see
system.mem_ctrls.rdQLenPdf::29                      0                       # What read queue length does an incoming req see
system.mem_ctrls.rdQLenPdf::30                      0                       # What read queue length does an incoming req see
system.mem_ctrls.rdQLenPdf::31                      0                       # What read queue length does an incoming req see
system.mem_ctrls.wrQLenPdf::0                       0                       # What write queue length does an incoming req see
system.mem_ctrls.wrQLenPdf::1                       0                       # What write queue length does an incoming req see
system.mem_ctrls.wrQLenPdf::2                       0                       # What write queue length does an incoming req see
system.mem_ctrls.wrQLenPdf::3                       0                       # What write queue length does an incoming req see
system.mem_ctrls.wrQLenPdf::4                       0                       # What write queue length does an incoming req see
system.mem_ctrls.wrQLenPdf::5                       0                       # What write queue length does an incoming req see
system.mem_ctrls.wrQLenPdf::6                       0                       # What write queue length does an incoming req see
system.mem_ctrls.wrQLenPdf::7                       0                       # What write queue length does an incoming req see
system.mem_ctrls.wrQLenPdf::8                       0                       # What write queue length does an incoming req see
system.mem_ctrls.wrQLenPdf::9                       0                       # What write queue length does an incoming req see
system.mem_ctrls.wrQLenPdf::10                      0                       # What write queue length does an incoming req see
system.mem_ctrls.wrQLenPdf::11                      0                       # What write queue length does an incoming req see
system.mem_ctrls.wrQLenPdf::12                      0                       # What write queue length does an incoming req see
system.mem_ctrls.wrQLenPdf::13                      0                       # What write queue length does an incoming req see
system.mem_ctrls.wrQLenPdf::14                      0                       # What write queue length does an incoming req see
system.mem_ctrls.wrQLenPdf::15                      0                       # What write queue length does an incoming req see
system.mem_ctrls.wrQLenPdf::16                      0                       # What write queue length does an incoming req see
system.mem_ctrls.wrQLenPdf::17                      0                       # What write queue length does an incoming req see
system.mem_ctrls.wrQLenPdf::18                      0                       # What write queue length does an incoming req see
system.mem_ctrls.wrQLenPdf::19                      0                       # What write queue length does an incoming req see
system.mem_ctrls.wrQLenPdf::20                      0                       # What write queue length does an incoming req see
system.mem_ctrls.wrQLenPdf::21                      0                       # What write queue length does an incoming req see
system.mem_ctrls.wrQLenPdf::22                      0                       # What write queue length does an incoming req see
system.mem_ctrls.wrQLenPdf::23                      0                       # What write queue length does an incoming req see
system.mem_ctrls.wrQLenPdf::24                      0                       # What write queue length does an incoming req see
system.mem_ctrls.wrQLenPdf::25                      0                       # What write queue length does an incoming req see
system.mem_ctrls.wrQLenPdf::26                      0                       # What write queue length does an incoming req see
system.mem_ctrls.wrQLenPdf::27                      0                       # What write queue length does an incoming req see
system.mem_ctrls.wrQLenPdf::28                      0                       # What write queue length does an incoming req see
system.mem_ctrls.wrQLenPdf::29                      0                       # What write queue length does an incoming req see
system.mem_ctrls.wrQLenPdf::30                      0                       # What write queue length does an incoming req see
system.mem_ctrls.wrQLenPdf::31                      0                       # What write queue length does an incoming req see
system.mem_ctrls.wrQLenPdf::32                      0                       # What write queue length does an incoming req see
system.mem_ctrls.wrQLenPdf::33                      0                       # What write queue length does an incoming req see
system.mem_ctrls.wrQLenPdf::34                      0                       # What write queue length does an incoming req see
system.mem_ctrls.wrQLenPdf::35                      0                       # What write queue length does an incoming req see
system.mem_ctrls.wrQLenPdf::36                      0                       # What write queue length does an incoming req see
system.mem_ctrls.wrQLenPdf::37                      0                       # What write queue length does an incoming req see
system.mem_ctrls.wrQLenPdf::38                      0                       # What write queue length does an incoming req see
system.mem_ctrls.wrQLenPdf::39                      0                       # What write queue length does an incoming req see
system.mem_ctrls.wrQLenPdf::40                      0                       # What write queue length does an incoming req see
system.mem_ctrls.wrQLenPdf::41                      0                       # What write queue length does an incoming req see
system.mem_ctrls.wrQLenPdf::42                      0                       # What write queue length does an incoming req see
system.mem_ctrls.wrQLenPdf::43                      0                       # What write queue length does an incoming req see
system.mem_ctrls.wrQLenPdf::44                      0                       # What write queue length does an incoming req see
system.mem_ctrls.wrQLenPdf::45                      0                       # What write queue length does an incoming req see
system.mem_ctrls.wrQLenPdf::46                      0                       # What write queue length does an incoming req see
system.mem_ctrls.wrQLenPdf::47                      0                       # What write queue length does an incoming req see
system.mem_ctrls.wrQLenPdf::48                      0                       # What write queue length does an incoming req see
system.mem_ctrls.wrQLenPdf::49                      0                       # What write queue length does an incoming req see
system.mem_ctrls.wrQLenPdf::50                      0                       # What write queue length does an incoming req see
system.mem_ctrls.wrQLenPdf::51                      0                       # What write queue length does an incoming req see
system.mem_ctrls.wrQLenPdf::52                      0                       # What write queue length does an incoming req see
system.mem_ctrls.wrQLenPdf::53                      0                       # What write queue length does an incoming req see
system.mem_ctrls.wrQLenPdf::54                      0                       # What write queue length does an incoming req see
system.mem_ctrls.wrQLenPdf::55                      0                       # What write queue length does an incoming req see
system.mem_ctrls.wrQLenPdf::56                      0                       # What write queue length does an incoming req see
system.mem_ctrls.wrQLenPdf::57                      0                       # What write queue length does an incoming req see
system.mem_ctrls.wrQLenPdf::58                      0                       # What write queue length does an incoming req see
system.mem_ctrls.wrQLenPdf::59                      0                       # What write queue length does an incoming req see
system.mem_ctrls.wrQLenPdf::60                      0                       # What write queue length does an incoming req see
system.mem_ctrls.wrQLenPdf::61                      0                       # What write queue length does an incoming req see
system.mem_ctrls.wrQLenPdf::62                      0                       # What write queue length does an incoming req see
system.mem_ctrls.wrQLenPdf::63                      0                       # What write queue length does an incoming req see
system.mem_ctrls.bytesPerActivate::samples        52508                       # Bytes accessed per row activation
system.mem_ctrls.bytesPerActivate::mean    352.009751                       # Bytes accessed per row activation
system.mem_ctrls.bytesPerActivate::gmean   306.845843                       # Bytes accessed per row activation
system.mem_ctrls.bytesPerActivate::stdev   204.577684                       # Bytes accessed per row activation
system.mem_ctrls.bytesPerActivate::0-127         1731      3.30%      3.30% # Bytes accessed per row activation
system.mem_ctrls.bytesPerActivate::128-255         2205      4.20%      7.50% # Bytes accessed per row activation
system.mem_ctrls.bytesPerActivate::256-383        36037     68.63%     76.13% # Bytes accessed per row activation
system.mem_ctrls.bytesPerActivate::384-511         2590      4.93%     81.06% # Bytes accessed per row activation
system.mem_ctrls.bytesPerActivate::512-639         2918      5.56%     86.62% # Bytes accessed per row activation
system.mem_ctrls.bytesPerActivate::640-767         2627      5.00%     91.62% # Bytes accessed per row activation
system.mem_ctrls.bytesPerActivate::768-895         2073      3.95%     95.57% # Bytes accessed per row activation
system.mem_ctrls.bytesPerActivate::896-1023         1381      2.63%     98.20% # Bytes accessed per row activation
system.mem_ctrls.bytesPerActivate::1024-1151          946      1.80%    100.00% # Bytes accessed per row activation
system.mem_ctrls.bytesPerActivate::total        52508                       # Bytes accessed per row activation
system.mem_ctrls.totQLat                   2653952749                       # Total ticks spent queuing
system.mem_ctrls.totMemAccLat              8069758999                       # Total ticks spent from burst creation until serviced by the DRAM
system.mem_ctrls.totBusLat                 1444215000                       # Total ticks spent in databus transfers
system.mem_ctrls.avgQLat                      9188.22                       # Average queueing delay per DRAM burst
system.mem_ctrls.avgBusLat                    5000.00                       # Average bus latency per DRAM burst
system.mem_ctrls.avgMemAccLat                27938.22                       # Average memory access latency per DRAM burst
system.mem_ctrls.avgRdBW                        45.19                       # Average DRAM read bandwidth in MiByte/s
system.mem_ctrls.avgWrBW                         0.00                       # Average achieved write bandwidth in MiByte/s
system.mem_ctrls.avgRdBWSys                     45.19                       # Average system read bandwidth in MiByte/s
system.mem_ctrls.avgWrBWSys                      0.00                       # Average system write bandwidth in MiByte/s
system.mem_ctrls.peakBW                      12800.00                       # Theoretical peak bandwidth in MiByte/s
system.mem_ctrls.busUtil                         0.35                       # Data bus utilization in percentage
system.mem_ctrls.busUtilRead                     0.35                       # Data bus utilization in percentage for reads
system.mem_ctrls.busUtilWrite                    0.00                       # Data bus utilization in percentage for writes
system.mem_ctrls.avgRdQLen                       1.00                       # Average read queue length when enqueuing
system.mem_ctrls.avgWrQLen                       0.00                       # Average write queue length when enqueuing
system.mem_ctrls.readRowHits                   236323                       # Number of row buffer hits during reads
system.mem_ctrls.writeRowHits                       0                       # Number of row buffer hits during writes
system.mem_ctrls.readRowHitRate                 81.82                       # Row buffer hit rate for reads
system.mem_ctrls.writeRowHitRate                  nan                       # Row buffer hit rate for writes
system.mem_ctrls.avgGap                    1416219.59                       # Average gap between requests
system.mem_ctrls.pageHitRate                    81.82                       # Row buffer hit rate, read and write combined
system.mem_ctrls_0.actEnergy                198185400                       # Energy for activate commands per rank (pJ)
system.mem_ctrls_0.preEnergy                108136875                       # Energy for precharge commands per rank (pJ)
system.mem_ctrls_0.readEnergy              1123987800                       # Energy for read commands per rank (pJ)
system.mem_ctrls_0.writeEnergy                      0                       # Energy for write commands per rank (pJ)
system.mem_ctrls_0.refreshEnergy          26717708160                       # Energy for refresh commands per rank (pJ)
system.mem_ctrls_0.actBackEnergy         124892816850                       # Energy for active background per rank (pJ)
system.mem_ctrls_0.preBackEnergy         135880111500                       # Energy for precharge background per rank (pJ)
system.mem_ctrls_0.totalEnergy           288920946585                       # Total energy per rank (pJ)
system.mem_ctrls_0.averagePower            706.306830                       # Core power per rank (mW)
system.mem_ctrls_0.memoryStateTime::IDLE 225390053000                       # Time in different power states
system.mem_ctrls_0.memoryStateTime::REF   13659360000                       # Time in different power states
system.mem_ctrls_0.memoryStateTime::PRE_PDN            0                       # Time in different power states
system.mem_ctrls_0.memoryStateTime::ACT  170010350000                       # Time in different power states
system.mem_ctrls_0.memoryStateTime::ACT_PDN            0                       # Time in different power states
system.mem_ctrls_1.actEnergy                198744840                       # Energy for activate commands per rank (pJ)
system.mem_ctrls_1.preEnergy                108442125                       # Energy for precharge commands per rank (pJ)
system.mem_ctrls_1.readEnergy              1128597600                       # Energy for read commands per rank (pJ)
system.mem_ctrls_1.writeEnergy                      0                       # Energy for write commands per rank (pJ)
system.mem_ctrls_1.refreshEnergy          26717708160                       # Energy for refresh commands per rank (pJ)
system.mem_ctrls_1.actBackEnergy         125996626980                       # Energy for active background per rank (pJ)
system.mem_ctrls_1.preBackEnergy         134911848750                       # Energy for precharge background per rank (pJ)
system.mem_ctrls_1.totalEnergy           289061968455                       # Total energy per rank (pJ)
system.mem_ctrls_1.averagePower            706.651601                       # Core power per rank (mW)
system.mem_ctrls_1.memoryStateTime::IDLE 223776236000                       # Time in different power states
system.mem_ctrls_1.memoryStateTime::REF   13659360000                       # Time in different power states
system.mem_ctrls_1.memoryStateTime::PRE_PDN            0                       # Time in different power states
system.mem_ctrls_1.memoryStateTime::ACT  171627344500                       # Time in different power states
system.mem_ctrls_1.memoryStateTime::ACT_PDN            0                       # Time in different power states
system.cpu_voltage_domain.voltage                   1                       # Voltage in Volts
system.cpu_clk_domain.clock                       500                       # Clock period in ticks
system.cpu0.apic_clk_domain.clock                8000                       # Clock period in ticks
system.cpu0.workload.num_syscalls                  69                       # Number of system calls
system.cpu0.numCycles                       818130389                       # number of cpu cycles simulated
system.cpu0.numWorkItemsStarted                     0                       # number of work items this cpu started
system.cpu0.numWorkItemsCompleted                   0                       # number of work items this cpu completed
system.cpu0.committedInsts                  223590676                       # Number of instructions committed
system.cpu0.committedOps                    621425079                       # Number of ops (including micro ops) committed
system.cpu0.num_int_alu_accesses            587196648                       # Number of integer alu accesses
system.cpu0.num_fp_alu_accesses              14535662                       # Number of float alu accesses
system.cpu0.num_func_calls                   20378864                       # number of times a function call or return occured
system.cpu0.num_conditional_control_insts     49051420                       # number of instructions that are conditional controls
system.cpu0.num_int_insts                   587196648                       # number of integer instructions
system.cpu0.num_fp_insts                     14535662                       # number of float instructions
system.cpu0.num_int_register_reads         1239954128                       # number of times the integer registers were read
system.cpu0.num_int_register_writes         580395984                       # number of times the integer registers were written
system.cpu0.num_fp_register_reads            23359492                       # number of times the floating registers were read
system.cpu0.num_fp_register_writes           11424760                       # number of times the floating registers were written
system.cpu0.num_cc_register_reads           497171740                       # number of times the CC registers were read
system.cpu0.num_cc_register_writes          185858863                       # number of times the CC registers were written
system.cpu0.num_mem_refs                     99256197                       # number of memory refs
system.cpu0.num_load_insts                   60760192                       # Number of load instructions
system.cpu0.num_store_insts                  38496005                       # Number of store instructions
system.cpu0.num_idle_cycles                  0.002000                       # Number of idle cycles
system.cpu0.num_busy_cycles              818130388.998000                       # Number of busy cycles
system.cpu0.not_idle_fraction                1.000000                       # Percentage of non-idle cycles
system.cpu0.idle_fraction                    0.000000                       # Percentage of idle cycles
system.cpu0.Branches                         79200676                       # Number of branches fetched
system.cpu0.op_class::No_OpClass             11822252      1.90%      1.90% # Class of executed instruction
system.cpu0.op_class::IntAlu                448038894     72.10%     74.00% # Class of executed instruction
system.cpu0.op_class::IntMult                     318      0.00%     74.00% # Class of executed instruction
system.cpu0.op_class::IntDiv                 50883430      8.19%     82.19% # Class of executed instruction
system.cpu0.op_class::FloatAdd               11423988      1.84%     84.03% # Class of executed instruction
system.cpu0.op_class::FloatCmp                      0      0.00%     84.03% # Class of executed instruction
system.cpu0.op_class::FloatCvt                      0      0.00%     84.03% # Class of executed instruction
system.cpu0.op_class::FloatMult                     0      0.00%     84.03% # Class of executed instruction
system.cpu0.op_class::FloatDiv                      0      0.00%     84.03% # Class of executed instruction
system.cpu0.op_class::FloatSqrt                     0      0.00%     84.03% # Class of executed instruction
system.cpu0.op_class::SimdAdd                       0      0.00%     84.03% # Class of executed instruction
system.cpu0.op_class::SimdAddAcc                    0      0.00%     84.03% # Class of executed instruction
system.cpu0.op_class::SimdAlu                       0      0.00%     84.03% # Class of executed instruction
system.cpu0.op_class::SimdCmp                       0      0.00%     84.03% # Class of executed instruction
system.cpu0.op_class::SimdCvt                       0      0.00%     84.03% # Class of executed instruction
system.cpu0.op_class::SimdMisc                      0      0.00%     84.03% # Class of executed instruction
system.cpu0.op_class::SimdMult                      0      0.00%     84.03% # Class of executed instruction
system.cpu0.op_class::SimdMultAcc                   0      0.00%     84.03% # Class of executed instruction
system.cpu0.op_class::SimdShift                     0      0.00%     84.03% # Class of executed instruction
system.cpu0.op_class::SimdShiftAcc                  0      0.00%     84.03% # Class of executed instruction
system.cpu0.op_class::SimdSqrt                      0      0.00%     84.03% # Class of executed instruction
system.cpu0.op_class::SimdFloatAdd                  0      0.00%     84.03% # Class of executed instruction
system.cpu0.op_class::SimdFloatAlu                  0      0.00%     84.03% # Class of executed instruction
system.cpu0.op_class::SimdFloatCmp                  0      0.00%     84.03% # Class of executed instruction
system.cpu0.op_class::SimdFloatCvt                  0      0.00%     84.03% # Class of executed instruction
system.cpu0.op_class::SimdFloatDiv                  0      0.00%     84.03% # Class of executed instruction
system.cpu0.op_class::SimdFloatMisc                 0      0.00%     84.03% # Class of executed instruction
system.cpu0.op_class::SimdFloatMult                 0      0.00%     84.03% # Class of executed instruction
system.cpu0.op_class::SimdFloatMultAcc              0      0.00%     84.03% # Class of executed instruction
system.cpu0.op_class::SimdFloatSqrt                 0      0.00%     84.03% # Class of executed instruction
system.cpu0.op_class::MemRead                60760192      9.78%     93.81% # Class of executed instruction
system.cpu0.op_class::MemWrite               38496005      6.19%    100.00% # Class of executed instruction
system.cpu0.op_class::IprAccess                     0      0.00%    100.00% # Class of executed instruction
system.cpu0.op_class::InstPrefetch                  0      0.00%    100.00% # Class of executed instruction
system.cpu0.op_class::total                 621425079                       # Class of executed instruction
system.cpu1.apic_clk_domain.clock                8000                       # Clock period in ticks
system.cpu1.numCycles                       817909758                       # number of cpu cycles simulated
system.cpu1.numWorkItemsStarted                     0                       # number of work items this cpu started
system.cpu1.numWorkItemsCompleted                   0                       # number of work items this cpu completed
system.cpu1.committedInsts                   14517666                       # Number of instructions committed
system.cpu1.committedOps                     29033757                       # Number of ops (including micro ops) committed
system.cpu1.num_int_alu_accesses             21791557                       # Number of integer alu accesses
system.cpu1.num_fp_alu_accesses              14221533                       # Number of float alu accesses
system.cpu1.num_func_calls                      40491                       # number of times a function call or return occured
system.cpu1.num_conditional_control_insts      1783388                       # number of instructions that are conditional controls
system.cpu1.num_int_insts                    21791557                       # number of integer instructions
system.cpu1.num_fp_insts                     14221533                       # number of float instructions
system.cpu1.num_int_register_reads           38295436                       # number of times the integer registers were read
system.cpu1.num_int_register_writes          13006896                       # number of times the integer registers were written
system.cpu1.num_fp_register_reads            21544607                       # number of times the floating registers were read
system.cpu1.num_fp_register_writes           14201308                       # number of times the floating registers were written
system.cpu1.num_cc_register_reads            10720594                       # number of times the CC registers were read
system.cpu1.num_cc_register_writes           10714260                       # number of times the CC registers were written
system.cpu1.num_mem_refs                      7083855                       # number of memory refs
system.cpu1.num_load_insts                    7043298                       # Number of load instructions
system.cpu1.num_store_insts                     40557                       # Number of store instructions
system.cpu1.num_idle_cycles              757751605.650180                       # Number of idle cycles
system.cpu1.num_busy_cycles              60158152.349820                       # Number of busy cycles
system.cpu1.not_idle_fraction                0.073551                       # Percentage of non-idle cycles
system.cpu1.idle_fraction                    0.926449                       # Percentage of idle cycles
system.cpu1.Branches                          1845678                       # Number of branches fetched
system.cpu1.op_class::No_OpClass                    2      0.00%      0.00% # Class of executed instruction
system.cpu1.op_class::IntAlu                 14647016     50.45%     50.45% # Class of executed instruction
system.cpu1.op_class::IntMult                   60671      0.21%     50.66% # Class of executed instruction
system.cpu1.op_class::IntDiv                       14      0.00%     50.66% # Class of executed instruction
system.cpu1.op_class::FloatAdd                7242199     24.94%     75.60% # Class of executed instruction
system.cpu1.op_class::FloatCmp                      0      0.00%     75.60% # Class of executed instruction
system.cpu1.op_class::FloatCvt                      0      0.00%     75.60% # Class of executed instruction
system.cpu1.op_class::FloatMult                     0      0.00%     75.60% # Class of executed instruction
system.cpu1.op_class::FloatDiv                      0      0.00%     75.60% # Class of executed instruction
system.cpu1.op_class::FloatSqrt                     0      0.00%     75.60% # Class of executed instruction
system.cpu1.op_class::SimdAdd                       0      0.00%     75.60% # Class of executed instruction
system.cpu1.op_class::SimdAddAcc                    0      0.00%     75.60% # Class of executed instruction
system.cpu1.op_class::SimdAlu                       0      0.00%     75.60% # Class of executed instruction
system.cpu1.op_class::SimdCmp                       0      0.00%     75.60% # Class of executed instruction
system.cpu1.op_class::SimdCvt                       0      0.00%     75.60% # Class of executed instruction
system.cpu1.op_class::SimdMisc                      0      0.00%     75.60% # Class of executed instruction
system.cpu1.op_class::SimdMult                      0      0.00%     75.60% # Class of executed instruction
system.cpu1.op_class::SimdMultAcc                   0      0.00%     75.60% # Class of executed instruction
system.cpu1.op_class::SimdShift                     0      0.00%     75.60% # Class of executed instruction
system.cpu1.op_class::SimdShiftAcc                  0      0.00%     75.60% # Class of executed instruction
system.cpu1.op_class::SimdSqrt                      0      0.00%     75.60% # Class of executed instruction
system.cpu1.op_class::SimdFloatAdd                  0      0.00%     75.60% # Class of executed instruction
system.cpu1.op_class::SimdFloatAlu                  0      0.00%     75.60% # Class of executed instruction
system.cpu1.op_class::SimdFloatCmp                  0      0.00%     75.60% # Class of executed instruction
system.cpu1.op_class::SimdFloatCvt                  0      0.00%     75.60% # Class of executed instruction
system.cpu1.op_class::SimdFloatDiv                  0      0.00%     75.60% # Class of executed instruction
system.cpu1.op_class::SimdFloatMisc                 0      0.00%     75.60% # Class of executed instruction
system.cpu1.op_class::SimdFloatMult                 0      0.00%     75.60% # Class of executed instruction
system.cpu1.op_class::SimdFloatMultAcc              0      0.00%     75.60% # Class of executed instruction
system.cpu1.op_class::SimdFloatSqrt                 0      0.00%     75.60% # Class of executed instruction
system.cpu1.op_class::MemRead                 7043298     24.26%     99.86% # Class of executed instruction
system.cpu1.op_class::MemWrite                  40557      0.14%    100.00% # Class of executed instruction
system.cpu1.op_class::IprAccess                     0      0.00%    100.00% # Class of executed instruction
system.cpu1.op_class::InstPrefetch                  0      0.00%    100.00% # Class of executed instruction
system.cpu1.op_class::total                  29033757                       # Class of executed instruction
system.ruby.clk_domain.clock                      500                       # Clock period in ticks
system.ruby.delayHist::bucket_size                  2                       # delay histogram for all message
system.ruby.delayHist::max_bucket                  19                       # delay histogram for all message
system.ruby.delayHist::samples                4539006                       # delay histogram for all message
system.ruby.delayHist::mean                  0.523746                       # delay histogram for all message
system.ruby.delayHist::stdev                 1.978618                       # delay histogram for all message
system.ruby.delayHist                    |     4241705     93.45%     93.45% |          35      0.00%     93.45% |         349      0.01%     93.46% |           0      0.00%     93.46% |      296902      6.54%    100.00% |           1      0.00%    100.00% |           0      0.00%    100.00% |           2      0.00%    100.00% |           0      0.00%    100.00% |          12      0.00%    100.00% # delay histogram for all message
system.ruby.delayHist::total                  4539006                       # delay histogram for all message
system.ruby.outstanding_req_hist::bucket_size            1                      
system.ruby.outstanding_req_hist::max_bucket            9                      
system.ruby.outstanding_req_hist::samples    415252478                      
system.ruby.outstanding_req_hist::mean       1.000178                      
system.ruby.outstanding_req_hist::gmean      1.000123                      
system.ruby.outstanding_req_hist::stdev      0.013329                      
system.ruby.outstanding_req_hist         |           0      0.00%      0.00% |   415178688     99.98%     99.98% |       73790      0.02%    100.00% |           0      0.00%    100.00% |           0      0.00%    100.00% |           0      0.00%    100.00% |           0      0.00%    100.00% |           0      0.00%    100.00% |           0      0.00%    100.00% |           0      0.00%    100.00%
system.ruby.outstanding_req_hist::total     415252478                      
system.ruby.latency_hist::bucket_size             128                      
system.ruby.latency_hist::max_bucket             1279                      
system.ruby.latency_hist::samples           415252478                      
system.ruby.latency_hist::mean               1.115377                      
system.ruby.latency_hist::gmean              1.006595                      
system.ruby.latency_hist::stdev              4.190769                      
system.ruby.latency_hist                 |   415199957     99.99%     99.99% |       42957      0.01%    100.00% |        1168      0.00%    100.00% |        1064      0.00%    100.00% |        6754      0.00%    100.00% |         578      0.00%    100.00% |           0      0.00%    100.00% |           0      0.00%    100.00% |           0      0.00%    100.00% |           0      0.00%    100.00%
system.ruby.latency_hist::total             415252478                      
system.ruby.hit_latency_hist::bucket_size          128                      
system.ruby.hit_latency_hist::max_bucket         1279                      
system.ruby.hit_latency_hist::samples       415252478                      
system.ruby.hit_latency_hist::mean           1.115377                      
system.ruby.hit_latency_hist::gmean          1.006595                      
system.ruby.hit_latency_hist::stdev          4.190769                      
system.ruby.hit_latency_hist             |   415199957     99.99%     99.99% |       42957      0.01%    100.00% |        1168      0.00%    100.00% |        1064      0.00%    100.00% |        6754      0.00%    100.00% |         578      0.00%    100.00% |           0      0.00%    100.00% |           0      0.00%    100.00% |           0      0.00%    100.00% |           0      0.00%    100.00%
system.ruby.hit_latency_hist::total         415252478                      
system.ruby.l0_cntrl0.Dcache.demand_hits     98969247                       # Number of cache demand hits
system.ruby.l0_cntrl0.Dcache.demand_misses       287012                       # Number of cache demand misses
system.ruby.l0_cntrl0.Dcache.demand_accesses     99256259                       # Number of cache demand accesses
system.ruby.l0_cntrl0.Icache.demand_hits    290212187                       # Number of cache demand hits
system.ruby.l0_cntrl0.Icache.demand_misses         2113                       # Number of cache demand misses
system.ruby.l0_cntrl0.Icache.demand_accesses    290214300                       # Number of cache demand accesses
system.ruby.l0_cntrl0.Zcache.demand_hits     17945417                       # Number of cache demand hits
system.ruby.l0_cntrl0.Zcache.demand_misses       286201                       # Number of cache demand misses
system.ruby.l0_cntrl0.Zcache.demand_accesses     18231618                       # Number of cache demand accesses
system.ruby.l0_cntrl1.Dcache.demand_hits      6707239                       # Number of cache demand hits
system.ruby.l0_cntrl1.Dcache.demand_misses       450344                       # Number of cache demand misses
system.ruby.l0_cntrl1.Dcache.demand_accesses      7157583                       # Number of cache demand accesses
system.ruby.l0_cntrl1.Icache.demand_hits     18623716                       # Number of cache demand hits
system.ruby.l0_cntrl1.Icache.demand_misses          620                       # Number of cache demand misses
system.ruby.l0_cntrl1.Icache.demand_accesses     18624336                       # Number of cache demand accesses
system.ruby.l0_cntrl1.Zcache.demand_hits        46346                       # Number of cache demand hits
system.ruby.l0_cntrl1.Zcache.demand_misses         3045                       # Number of cache demand misses
system.ruby.l0_cntrl1.Zcache.demand_accesses        49391                       # Number of cache demand accesses
system.ruby.l1_cntrl0.cache.demand_hits           115                       # Number of cache demand hits
system.ruby.l1_cntrl0.cache.demand_misses       289010                       # Number of cache demand misses
system.ruby.l1_cntrl0.cache.demand_accesses       289125                       # Number of cache demand accesses
system.ruby.l1_cntrl0.zcache.demand_hits           11                       # Number of cache demand hits
system.ruby.l1_cntrl0.zcache.demand_misses        66312                       # Number of cache demand misses
system.ruby.l1_cntrl0.zcache.demand_accesses        66323                       # Number of cache demand accesses
system.ruby.l1_cntrl1.cache.demand_hits         37446                       # Number of cache demand hits
system.ruby.l1_cntrl1.cache.demand_misses       413518                       # Number of cache demand misses
system.ruby.l1_cntrl1.cache.demand_accesses       450964                       # Number of cache demand accesses
system.ruby.l1_cntrl1.zcache.demand_hits            0                       # Number of cache demand hits
system.ruby.l1_cntrl1.zcache.demand_misses            0                       # Number of cache demand misses
system.ruby.l1_cntrl1.zcache.demand_accesses            0                       # Number of cache demand accesses
system.ruby.l2_cntrl0.L2cache.demand_hits       410005                       # Number of cache demand hits
system.ruby.l2_cntrl0.L2cache.demand_misses       292523                       # Number of cache demand misses
system.ruby.l2_cntrl0.L2cache.demand_accesses       702528                       # Number of cache demand accesses
system.ruby.l2_cntrl0.ZL2cache.demand_hits         1789                       # Number of cache demand hits
system.ruby.l2_cntrl0.ZL2cache.demand_misses        62709                       # Number of cache demand misses
system.ruby.l2_cntrl0.ZL2cache.demand_accesses        64498                       # Number of cache demand accesses
system.ruby.memctrl_clk_domain.clock             1500                       # Clock period in ticks
system.ruby.network.routers0.percent_links_utilized            0                      
system.ruby.network.routers1.percent_links_utilized            0                      
system.ruby.network.routers2.percent_links_utilized     0.184962                      
system.ruby.network.routers2.msg_count.Control::0       289010                      
system.ruby.network.routers2.msg_count.Request_Control::2         3671                      
system.ruby.network.routers2.msg_count.Response_Data::1       296335                      
system.ruby.network.routers2.msg_count.Response_Control::1       280721                      
system.ruby.network.routers2.msg_count.Response_Control::2       289009                      
system.ruby.network.routers2.msg_count.Writeback_Data::0       280350                      
system.ruby.network.routers2.msg_count.Writeback_Control::0          345                      
system.ruby.network.routers2.msg_bytes.Control::0      2312080                      
system.ruby.network.routers2.msg_bytes.Request_Control::2        29368                      
system.ruby.network.routers2.msg_bytes.Response_Data::1     21336120                      
system.ruby.network.routers2.msg_bytes.Response_Control::1      2245768                      
system.ruby.network.routers2.msg_bytes.Response_Control::2      2312072                      
system.ruby.network.routers2.msg_bytes.Writeback_Data::0     20185200                      
system.ruby.network.routers2.msg_bytes.Writeback_Control::0         2760                      
system.ruby.network.routers3.percent_links_utilized     0.167169                      
system.ruby.network.routers3.msg_count.Control::0       413518                      
system.ruby.network.routers3.msg_count.Request_Control::2           22                      
system.ruby.network.routers3.msg_count.Response_Data::1       413536                      
system.ruby.network.routers3.msg_count.Response_Control::1       409359                      
system.ruby.network.routers3.msg_count.Response_Control::2       413489                      
system.ruby.network.routers3.msg_count.Writeback_Data::0        12887                      
system.ruby.network.routers3.msg_count.Writeback_Control::0       396457                      
system.ruby.network.routers3.msg_bytes.Control::0      3308144                      
system.ruby.network.routers3.msg_bytes.Request_Control::2          176                      
system.ruby.network.routers3.msg_bytes.Response_Data::1     29774592                      
system.ruby.network.routers3.msg_bytes.Response_Control::1      3274872                      
system.ruby.network.routers3.msg_bytes.Response_Control::2      3307912                      
system.ruby.network.routers3.msg_bytes.Writeback_Data::0       927864                      
system.ruby.network.routers3.msg_bytes.Writeback_Control::0      3171656                      
system.ruby.network.routers4.percent_links_utilized     0.438370                      
system.ruby.network.routers4.msg_count.Control::0       991371                      
system.ruby.network.routers4.msg_count.Request_Control::2         3693                      
system.ruby.network.routers4.msg_count.Response_Data::1       991355                      
system.ruby.network.routers4.msg_count.Response_Control::1       690052                      
system.ruby.network.routers4.msg_count.Response_Control::2       702498                      
system.ruby.network.routers4.msg_count.Writeback_Data::0       293237                      
system.ruby.network.routers4.msg_count.Writeback_Control::0       396802                      
system.ruby.network.routers4.msg_bytes.Control::0      7930968                      
system.ruby.network.routers4.msg_bytes.Request_Control::2        29544                      
system.ruby.network.routers4.msg_bytes.Response_Data::1     71377560                      
system.ruby.network.routers4.msg_bytes.Response_Control::1      5520416                      
system.ruby.network.routers4.msg_bytes.Response_Control::2      5619984                      
system.ruby.network.routers4.msg_bytes.Writeback_Data::0     21113064                      
system.ruby.network.routers4.msg_bytes.Writeback_Control::0      3174416                      
system.ruby.network.routers5.percent_links_utilized     0.088263                      
system.ruby.network.routers5.msg_count.Control::0       288843                      
system.ruby.network.routers5.msg_count.Response_Data::1       288843                      
system.ruby.network.routers5.msg_bytes.Control::0      2310744                      
system.ruby.network.routers5.msg_bytes.Response_Data::1     20796696                      
system.ruby.network.routers6.percent_links_utilized     0.146461                      
system.ruby.network.routers6.msg_count.Control::0       991371                      
system.ruby.network.routers6.msg_count.Request_Control::2         3693                      
system.ruby.network.routers6.msg_count.Response_Data::1       995035                      
system.ruby.network.routers6.msg_count.Response_Control::1       690066                      
system.ruby.network.routers6.msg_count.Response_Control::2       702498                      
system.ruby.network.routers6.msg_count.Writeback_Data::0       293237                      
system.ruby.network.routers6.msg_count.Writeback_Control::0       396802                      
system.ruby.network.routers6.msg_bytes.Control::0      7930968                      
system.ruby.network.routers6.msg_bytes.Request_Control::2        29544                      
system.ruby.network.routers6.msg_bytes.Response_Data::1     71642520                      
system.ruby.network.routers6.msg_bytes.Response_Control::1      5520528                      
system.ruby.network.routers6.msg_bytes.Response_Control::2      5619984                      
system.ruby.network.routers6.msg_bytes.Writeback_Data::0     21113064                      
system.ruby.network.routers6.msg_bytes.Writeback_Control::0      3174416                      
system.ruby.network.msg_count.Control         2974113                      
system.ruby.network.msg_count.Request_Control        11079                      
system.ruby.network.msg_count.Response_Data      2985104                      
system.ruby.network.msg_count.Response_Control      4177692                      
system.ruby.network.msg_count.Writeback_Data       879711                      
system.ruby.network.msg_count.Writeback_Control      1190406                      
system.ruby.network.msg_byte.Control         23792904                      
system.ruby.network.msg_byte.Request_Control        88632                      
system.ruby.network.msg_byte.Response_Data    214927488                      
system.ruby.network.msg_byte.Response_Control     33421536                      
system.ruby.network.msg_byte.Writeback_Data     63339192                      
system.ruby.network.msg_byte.Writeback_Control      9523248                      
system.ruby.network.routers0.throttle0.link_utilization            0                      
system.ruby.network.routers0.throttle1.link_utilization            0                      
system.ruby.network.routers1.throttle0.link_utilization            0                      
system.ruby.network.routers1.throttle1.link_utilization            0                      
system.ruby.network.routers2.throttle0.link_utilization     0.176339                      
system.ruby.network.routers2.throttle0.msg_count.Request_Control::2         3671                      
system.ruby.network.routers2.throttle0.msg_count.Response_Data::1       288998                      
system.ruby.network.routers2.throttle0.msg_count.Response_Control::1       280719                      
system.ruby.network.routers2.throttle0.msg_bytes.Request_Control::2        29368                      
system.ruby.network.routers2.throttle0.msg_bytes.Response_Data::1     20807856                      
system.ruby.network.routers2.throttle0.msg_bytes.Response_Control::1      2245752                      
system.ruby.network.routers2.throttle1.link_utilization     0.193585                      
system.ruby.network.routers2.throttle1.msg_count.Control::0       289010                      
system.ruby.network.routers2.throttle1.msg_count.Response_Data::1         7337                      
system.ruby.network.routers2.throttle1.msg_count.Response_Control::1            2                      
system.ruby.network.routers2.throttle1.msg_count.Response_Control::2       289009                      
system.ruby.network.routers2.throttle1.msg_count.Writeback_Data::0       280350                      
system.ruby.network.routers2.throttle1.msg_count.Writeback_Control::0          345                      
system.ruby.network.routers2.throttle1.msg_bytes.Control::0      2312080                      
system.ruby.network.routers2.throttle1.msg_bytes.Response_Data::1       528264                      
system.ruby.network.routers2.throttle1.msg_bytes.Response_Control::1           16                      
system.ruby.network.routers2.throttle1.msg_bytes.Response_Control::2      2312072                      
system.ruby.network.routers2.throttle1.msg_bytes.Writeback_Data::0     20185200                      
system.ruby.network.routers2.throttle1.msg_bytes.Writeback_Control::0         2760                      
system.ruby.network.routers3.throttle0.link_utilization     0.252467                      
system.ruby.network.routers3.throttle0.msg_count.Request_Control::2           22                      
system.ruby.network.routers3.throttle0.msg_count.Response_Data::1       413517                      
system.ruby.network.routers3.throttle0.msg_count.Response_Control::1       409347                      
system.ruby.network.routers3.throttle0.msg_bytes.Request_Control::2          176                      
system.ruby.network.routers3.throttle0.msg_bytes.Response_Data::1     29773224                      
system.ruby.network.routers3.throttle0.msg_bytes.Response_Control::1      3274776                      
system.ruby.network.routers3.throttle1.link_utilization     0.081871                      
system.ruby.network.routers3.throttle1.msg_count.Control::0       413518                      
system.ruby.network.routers3.throttle1.msg_count.Response_Data::1           19                      
system.ruby.network.routers3.throttle1.msg_count.Response_Control::1           12                      
system.ruby.network.routers3.throttle1.msg_count.Response_Control::2       413489                      
system.ruby.network.routers3.throttle1.msg_count.Writeback_Data::0        12887                      
system.ruby.network.routers3.throttle1.msg_count.Writeback_Control::0       396457                      
system.ruby.network.routers3.throttle1.msg_bytes.Control::0      3308144                      
system.ruby.network.routers3.throttle1.msg_bytes.Response_Data::1         1368                      
system.ruby.network.routers3.throttle1.msg_bytes.Response_Control::1           96                      
system.ruby.network.routers3.throttle1.msg_bytes.Response_Control::2      3307912                      
system.ruby.network.routers3.throttle1.msg_bytes.Writeback_Data::0       927864                      
system.ruby.network.routers3.throttle1.msg_bytes.Writeback_Control::0      3171656                      
system.ruby.network.routers4.throttle0.link_utilization     0.432305                      
system.ruby.network.routers4.throttle0.msg_count.Control::0       702528                      
system.ruby.network.routers4.throttle0.msg_count.Response_Data::1       292520                      
system.ruby.network.routers4.throttle0.msg_count.Response_Control::2       702498                      
system.ruby.network.routers4.throttle0.msg_count.Writeback_Data::0       293237                      
system.ruby.network.routers4.throttle0.msg_count.Writeback_Control::0       396802                      
system.ruby.network.routers4.throttle0.msg_bytes.Control::0      5620224                      
system.ruby.network.routers4.throttle0.msg_bytes.Response_Data::1     21061440                      
system.ruby.network.routers4.throttle0.msg_bytes.Response_Control::2      5619984                      
system.ruby.network.routers4.throttle0.msg_bytes.Writeback_Data::0     21113064                      
system.ruby.network.routers4.throttle0.msg_bytes.Writeback_Control::0      3174416                      
system.ruby.network.routers4.throttle1.link_utilization     0.444434                      
system.ruby.network.routers4.throttle1.msg_count.Control::0       288843                      
system.ruby.network.routers4.throttle1.msg_count.Request_Control::2         3693                      
system.ruby.network.routers4.throttle1.msg_count.Response_Data::1       698835                      
system.ruby.network.routers4.throttle1.msg_count.Response_Control::1       690052                      
system.ruby.network.routers4.throttle1.msg_bytes.Control::0      2310744                      
system.ruby.network.routers4.throttle1.msg_bytes.Request_Control::2        29544                      
system.ruby.network.routers4.throttle1.msg_bytes.Response_Data::1     50316120                      
system.ruby.network.routers4.throttle1.msg_bytes.Response_Control::1      5520416                      
system.ruby.network.routers5.throttle0.link_utilization     0.017653                      
system.ruby.network.routers5.throttle0.msg_count.Control::0       288843                      
system.ruby.network.routers5.throttle0.msg_bytes.Control::0      2310744                      
system.ruby.network.routers5.throttle1.link_utilization     0.158874                      
system.ruby.network.routers5.throttle1.msg_count.Response_Data::1       288843                      
system.ruby.network.routers5.throttle1.msg_bytes.Response_Data::1     20796696                      
system.ruby.network.routers6.throttle0.link_utilization            0                      
system.ruby.network.routers6.throttle1.link_utilization            0                      
system.ruby.network.routers6.throttle2.link_utilization     0.176339                      
system.ruby.network.routers6.throttle2.msg_count.Request_Control::2         3671                      
system.ruby.network.routers6.throttle2.msg_count.Response_Data::1       288998                      
system.ruby.network.routers6.throttle2.msg_count.Response_Control::1       280719                      
system.ruby.network.routers6.throttle2.msg_bytes.Request_Control::2        29368                      
system.ruby.network.routers6.throttle2.msg_bytes.Response_Data::1     20807856                      
system.ruby.network.routers6.throttle2.msg_bytes.Response_Control::1      2245752                      
system.ruby.network.routers6.throttle3.link_utilization     0.252467                      
system.ruby.network.routers6.throttle3.msg_count.Request_Control::2           22                      
system.ruby.network.routers6.throttle3.msg_count.Response_Data::1       413517                      
system.ruby.network.routers6.throttle3.msg_count.Response_Control::1       409347                      
system.ruby.network.routers6.throttle3.msg_bytes.Request_Control::2          176                      
system.ruby.network.routers6.throttle3.msg_bytes.Response_Data::1     29773224                      
system.ruby.network.routers6.throttle3.msg_bytes.Response_Control::1      3274776                      
system.ruby.network.routers6.throttle4.link_utilization     0.432305                      
system.ruby.network.routers6.throttle4.msg_count.Control::0       702528                      
system.ruby.network.routers6.throttle4.msg_count.Response_Data::1       292520                      
system.ruby.network.routers6.throttle4.msg_count.Response_Control::2       702498                      
system.ruby.network.routers6.throttle4.msg_count.Writeback_Data::0       293237                      
system.ruby.network.routers6.throttle4.msg_count.Writeback_Control::0       396802                      
system.ruby.network.routers6.throttle4.msg_bytes.Control::0      5620224                      
system.ruby.network.routers6.throttle4.msg_bytes.Response_Data::1     21061440                      
system.ruby.network.routers6.throttle4.msg_bytes.Response_Control::2      5619984                      
system.ruby.network.routers6.throttle4.msg_bytes.Writeback_Data::0     21113064                      
system.ruby.network.routers6.throttle4.msg_bytes.Writeback_Control::0      3174416                      
system.ruby.network.routers6.throttle5.link_utilization     0.017653                      
system.ruby.network.routers6.throttle5.msg_count.Control::0       288843                      
system.ruby.network.routers6.throttle5.msg_bytes.Control::0      2310744                      
system.ruby.delayVCHist.vnet_0::bucket_size            2                       # delay histogram for vnet_0
system.ruby.delayVCHist.vnet_0::max_bucket           19                       # delay histogram for vnet_0
system.ruby.delayVCHist.vnet_0::samples       2095065                       # delay histogram for vnet_0
system.ruby.delayVCHist.vnet_0::mean         1.119834                       # delay histogram for vnet_0
system.ruby.delayVCHist.vnet_0::stdev        2.775890                       # delay histogram for vnet_0
system.ruby.delayVCHist.vnet_0           |     1801790     86.00%     86.00% |          35      0.00%     86.00% |           0      0.00%     86.00% |           0      0.00%     86.00% |      293225     14.00%    100.00% |           1      0.00%    100.00% |           0      0.00%    100.00% |           2      0.00%    100.00% |           0      0.00%    100.00% |          12      0.00%    100.00% # delay histogram for vnet_0
system.ruby.delayVCHist.vnet_0::total         2095065                       # delay histogram for vnet_0
system.ruby.delayVCHist.vnet_1::bucket_size            1                       # delay histogram for vnet_1
system.ruby.delayVCHist.vnet_1::max_bucket            9                       # delay histogram for vnet_1
system.ruby.delayVCHist.vnet_1::samples       2425190                       # delay histogram for vnet_1
system.ruby.delayVCHist.vnet_1::mean         0.012129                       # delay histogram for vnet_1
system.ruby.delayVCHist.vnet_1::stdev        0.311268                       # delay histogram for vnet_1
system.ruby.delayVCHist.vnet_1           |     2421513     99.85%     99.85% |           0      0.00%     99.85% |           0      0.00%     99.85% |           0      0.00%     99.85% |           0      0.00%     99.85% |           0      0.00%     99.85% |           0      0.00%     99.85% |           0      0.00%     99.85% |        3677      0.15%    100.00% |           0      0.00%    100.00% # delay histogram for vnet_1
system.ruby.delayVCHist.vnet_1::total         2425190                       # delay histogram for vnet_1
system.ruby.delayVCHist.vnet_2::bucket_size            1                       # delay histogram for vnet_2
system.ruby.delayVCHist.vnet_2::max_bucket            9                       # delay histogram for vnet_2
system.ruby.delayVCHist.vnet_2::samples         18751                       # delay histogram for vnet_2
system.ruby.delayVCHist.vnet_2::mean         0.093062                       # delay histogram for vnet_2
system.ruby.delayVCHist.vnet_2::stdev        0.675775                       # delay histogram for vnet_2
system.ruby.delayVCHist.vnet_2           |       18402     98.14%     98.14% |           0      0.00%     98.14% |           0      0.00%     98.14% |           0      0.00%     98.14% |           0      0.00%     98.14% |         349      1.86%    100.00% |           0      0.00%    100.00% |           0      0.00%    100.00% |           0      0.00%    100.00% |           0      0.00%    100.00% # delay histogram for vnet_2
system.ruby.delayVCHist.vnet_2::total           18751                       # delay histogram for vnet_2
system.ruby.LD.latency_hist::bucket_size          128                      
system.ruby.LD.latency_hist::max_bucket          1279                      
system.ruby.LD.latency_hist::samples         61085624                      
system.ruby.LD.latency_hist::mean            1.140253                      
system.ruby.LD.latency_hist::gmean           1.021871                      
system.ruby.LD.latency_hist::stdev           1.703390                      
system.ruby.LD.latency_hist              |    61085513    100.00%    100.00% |         106      0.00%    100.00% |           0      0.00%    100.00% |           0      0.00%    100.00% |           4      0.00%    100.00% |           1      0.00%    100.00% |           0      0.00%    100.00% |           0      0.00%    100.00% |           0      0.00%    100.00% |           0      0.00%    100.00%
system.ruby.LD.latency_hist::total           61085624                      
system.ruby.LD.hit_latency_hist::bucket_size          128                      
system.ruby.LD.hit_latency_hist::max_bucket         1279                      
system.ruby.LD.hit_latency_hist::samples     61085624                      
system.ruby.LD.hit_latency_hist::mean        1.140253                      
system.ruby.LD.hit_latency_hist::gmean       1.021871                      
system.ruby.LD.hit_latency_hist::stdev       1.703390                      
system.ruby.LD.hit_latency_hist          |    61085513    100.00%    100.00% |         106      0.00%    100.00% |           0      0.00%    100.00% |           0      0.00%    100.00% |           4      0.00%    100.00% |           1      0.00%    100.00% |           0      0.00%    100.00% |           0      0.00%    100.00% |           0      0.00%    100.00% |           0      0.00%    100.00%
system.ruby.LD.hit_latency_hist::total       61085624                      
system.ruby.ST.latency_hist::bucket_size          128                      
system.ruby.ST.latency_hist::max_bucket          1279                      
system.ruby.ST.latency_hist::samples         31745286                      
system.ruby.ST.latency_hist::mean            2.233491                      
system.ruby.ST.latency_hist::gmean           1.044998                      
system.ruby.ST.latency_hist::stdev          14.900778                      
system.ruby.ST.latency_hist              |    31693156     99.84%     99.84% |       42583      0.13%     99.97% |        1167      0.00%     99.97% |        1064      0.00%     99.98% |        6743      0.02%    100.00% |         573      0.00%    100.00% |           0      0.00%    100.00% |           0      0.00%    100.00% |           0      0.00%    100.00% |           0      0.00%    100.00%
system.ruby.ST.latency_hist::total           31745286                      
system.ruby.ST.hit_latency_hist::bucket_size          128                      
system.ruby.ST.hit_latency_hist::max_bucket         1279                      
system.ruby.ST.hit_latency_hist::samples     31745286                      
system.ruby.ST.hit_latency_hist::mean        2.233491                      
system.ruby.ST.hit_latency_hist::gmean       1.044998                      
system.ruby.ST.hit_latency_hist::stdev      14.900778                      
system.ruby.ST.hit_latency_hist          |    31693156     99.84%     99.84% |       42583      0.13%     99.97% |        1167      0.00%     99.97% |        1064      0.00%     99.98% |        6743      0.02%    100.00% |         573      0.00%    100.00% |           0      0.00%    100.00% |           0      0.00%    100.00% |           0      0.00%    100.00% |           0      0.00%    100.00%
system.ruby.ST.hit_latency_hist::total       31745286                      
system.ruby.IFETCH.latency_hist::bucket_size          128                      
system.ruby.IFETCH.latency_hist::max_bucket         1279                      
system.ruby.IFETCH.latency_hist::samples    308838636                      
system.ruby.IFETCH.latency_hist::mean        1.000598                      
system.ruby.IFETCH.latency_hist::gmean       1.000034                      
system.ruby.IFETCH.latency_hist::stdev       0.273599                      
system.ruby.IFETCH.latency_hist          |   308838357    100.00%    100.00% |         267      0.00%    100.00% |           1      0.00%    100.00% |           0      0.00%    100.00% |           7      0.00%    100.00% |           4      0.00%    100.00% |           0      0.00%    100.00% |           0      0.00%    100.00% |           0      0.00%    100.00% |           0      0.00%    100.00%
system.ruby.IFETCH.latency_hist::total      308838636                      
system.ruby.IFETCH.hit_latency_hist::bucket_size          128                      
system.ruby.IFETCH.hit_latency_hist::max_bucket         1279                      
system.ruby.IFETCH.hit_latency_hist::samples    308838636                      
system.ruby.IFETCH.hit_latency_hist::mean     1.000598                      
system.ruby.IFETCH.hit_latency_hist::gmean     1.000034                      
system.ruby.IFETCH.hit_latency_hist::stdev     0.273599                      
system.ruby.IFETCH.hit_latency_hist      |   308838357    100.00%    100.00% |         267      0.00%    100.00% |           1      0.00%    100.00% |           0      0.00%    100.00% |           7      0.00%    100.00% |           4      0.00%    100.00% |           0      0.00%    100.00% |           0      0.00%    100.00% |           0      0.00%    100.00% |           0      0.00%    100.00%
system.ruby.IFETCH.hit_latency_hist::total    308838636                      
system.ruby.RMW_Read.latency_hist::bucket_size            4                      
system.ruby.RMW_Read.latency_hist::max_bucket           39                      
system.ruby.RMW_Read.latency_hist::samples          370                      
system.ruby.RMW_Read.latency_hist::mean      1.548649                      
system.ruby.RMW_Read.latency_hist::gmean     1.072940                      
system.ruby.RMW_Read.latency_hist::stdev     3.761027                      
system.ruby.RMW_Read.latency_hist        |         362     97.84%     97.84% |           0      0.00%     97.84% |           0      0.00%     97.84% |           0      0.00%     97.84% |           0      0.00%     97.84% |           3      0.81%     98.65% |           1      0.27%     98.92% |           2      0.54%     99.46% |           2      0.54%    100.00% |           0      0.00%    100.00%
system.ruby.RMW_Read.latency_hist::total          370                      
system.ruby.RMW_Read.hit_latency_hist::bucket_size            4                      
system.ruby.RMW_Read.hit_latency_hist::max_bucket           39                      
system.ruby.RMW_Read.hit_latency_hist::samples          370                      
system.ruby.RMW_Read.hit_latency_hist::mean     1.548649                      
system.ruby.RMW_Read.hit_latency_hist::gmean     1.072940                      
system.ruby.RMW_Read.hit_latency_hist::stdev     3.761027                      
system.ruby.RMW_Read.hit_latency_hist    |         362     97.84%     97.84% |           0      0.00%     97.84% |           0      0.00%     97.84% |           0      0.00%     97.84% |           0      0.00%     97.84% |           3      0.81%     98.65% |           1      0.27%     98.92% |           2      0.54%     99.46% |           2      0.54%    100.00% |           0      0.00%    100.00%
system.ruby.RMW_Read.hit_latency_hist::total          370                      
system.ruby.Locked_RMW_Read.latency_hist::bucket_size           16                      
system.ruby.Locked_RMW_Read.latency_hist::max_bucket          159                      
system.ruby.Locked_RMW_Read.latency_hist::samples      6791281                      
system.ruby.Locked_RMW_Read.latency_hist::mean     1.000095                      
system.ruby.Locked_RMW_Read.latency_hist::gmean     1.000011                      
system.ruby.Locked_RMW_Read.latency_hist::stdev     0.078053                      
system.ruby.Locked_RMW_Read.latency_hist |     6791264    100.00%    100.00% |          15      0.00%    100.00% |           0      0.00%    100.00% |           0      0.00%    100.00% |           0      0.00%    100.00% |           0      0.00%    100.00% |           0      0.00%    100.00% |           1      0.00%    100.00% |           1      0.00%    100.00% |           0      0.00%    100.00%
system.ruby.Locked_RMW_Read.latency_hist::total      6791281                      
system.ruby.Locked_RMW_Read.hit_latency_hist::bucket_size           16                      
system.ruby.Locked_RMW_Read.hit_latency_hist::max_bucket          159                      
system.ruby.Locked_RMW_Read.hit_latency_hist::samples      6791281                      
system.ruby.Locked_RMW_Read.hit_latency_hist::mean     1.000095                      
system.ruby.Locked_RMW_Read.hit_latency_hist::gmean     1.000011                      
system.ruby.Locked_RMW_Read.hit_latency_hist::stdev     0.078053                      
[...]
system.ruby.L0Cache_Controller.Store     |    45287654     99.91%     99.91% |       40564      0.09%    100.00%
system.ruby.L0Cache_Controller.Store::total     45328218                      
system.ruby.L0Cache_Controller.Inv       |        2093     13.90%     13.90% |       12965     86.10%    100.00%
system.ruby.L0Cache_Controller.Inv::total        15058                      
system.ruby.L0Cache_Controller.L0_Replacement |      286136     39.54%     39.54% |      437515     60.46%    100.00%
system.ruby.L0Cache_Controller.L0_Replacement::total       723651                      
system.ruby.L0Cache_Controller.Data      |          21      0.56%      0.56% |        3697     99.44%    100.00%
system.ruby.L0Cache_Controller.Data::total         3718                      
system.ruby.L0Cache_Controller.Data_Exclusive |      289104     39.26%     39.26% |      447267     60.74%    100.00%
system.ruby.L0Cache_Controller.Data_Exclusive::total       736371                      
system.ruby.L0Cache_Controller.NP.Load   |         667      0.15%      0.15% |      449063     99.85%    100.00%
system.ruby.L0Cache_Controller.NP.Load::total       449730                      
system.ruby.L0Cache_Controller.NP.Ifetch |        2113     77.31%     77.31% |         620     22.69%    100.00%
system.ruby.L0Cache_Controller.NP.Ifetch::total         2733                      
system.ruby.L0Cache_Controller.NP.Store  |      286333     99.55%     99.55% |        1280      0.45%    100.00%
system.ruby.L0Cache_Controller.NP.Store::total       287613                      
system.ruby.L0Cache_Controller.NP.Inv    |           0      0.00%      0.00% |          64    100.00%    100.00%
system.ruby.L0Cache_Controller.NP.Inv::total           64                      
system.ruby.L0Cache_Controller.S.Load    |     3343130     99.11%     99.11% |       29979      0.89%    100.00%
system.ruby.L0Cache_Controller.S.Load::total      3373109                      
system.ruby.L0Cache_Controller.S.Ifetch  |          24     12.63%     12.63% |         166     87.37%    100.00%
system.ruby.L0Cache_Controller.S.Ifetch::total          190                      
system.ruby.L0Cache_Controller.S.Store   |          12     92.31%     92.31% |           1      7.69%    100.00%
system.ruby.L0Cache_Controller.S.Store::total           13                      
system.ruby.L0Cache_Controller.S.Inv     |           1      5.00%      5.00% |          19     95.00%    100.00%
system.ruby.L0Cache_Controller.S.Inv::total           20                      
system.ruby.L0Cache_Controller.S.L0_Replacement |           5      0.15%      0.15% |        3277     99.85%    100.00%
system.ruby.L0Cache_Controller.S.L0_Replacement::total         3282                      
system.ruby.L0Cache_Controller.E.Load    |     6794105     50.66%     50.66% |     6617784     49.34%    100.00%
system.ruby.L0Cache_Controller.E.Load::total     13411889                      
system.ruby.L0Cache_Controller.E.Ifetch  |   290212163     93.97%     93.97% |    18623550      6.03%    100.00%
system.ruby.L0Cache_Controller.E.Ifetch::total    308835713                      
system.ruby.L0Cache_Controller.E.Store   |         280     69.83%     69.83% |         121     30.17%    100.00%
system.ruby.L0Cache_Controller.E.Store::total          401                      
system.ruby.L0Cache_Controller.E.Inv     |        1398     10.81%     10.81% |       11529     89.19%    100.00%
system.ruby.L0Cache_Controller.E.Inv::total        12927                      
system.ruby.L0Cache_Controller.E.L0_Replacement |         507      0.12%      0.12% |      434224     99.88%    100.00%
system.ruby.L0Cache_Controller.E.L0_Replacement::total       434731                      
system.ruby.L0Cache_Controller.M.Load    |    43830703     99.95%     99.95% |       20193      0.05%    100.00%
system.ruby.L0Cache_Controller.M.Load::total     43850896                      
system.ruby.L0Cache_Controller.M.Store   |    45001029     99.91%     99.91% |       39162      0.09%    100.00%
system.ruby.L0Cache_Controller.M.Store::total     45040191                      
system.ruby.L0Cache_Controller.M.Inv     |         694     33.90%     33.90% |        1353     66.10%    100.00%
system.ruby.L0Cache_Controller.M.Inv::total         2047                      
system.ruby.L0Cache_Controller.M.L0_Replacement |      285624    100.00%    100.00% |          14      0.00%    100.00%
system.ruby.L0Cache_Controller.M.L0_Replacement::total       285638                      
system.ruby.L0Cache_Controller.IS.Data   |          21      0.56%      0.56% |        3697     99.44%    100.00%
system.ruby.L0Cache_Controller.IS.Data::total         3718                      
system.ruby.L0Cache_Controller.IS.Data_Exclusive |        2759      0.61%      0.61% |      445986     99.39%    100.00%
system.ruby.L0Cache_Controller.IS.Data_Exclusive::total       448745                      
system.ruby.L0Cache_Controller.IM.Data_Exclusive |      286333     99.55%     99.55% |        1280      0.45%    100.00%
system.ruby.L0Cache_Controller.IM.Data_Exclusive::total       287613                      
system.ruby.L0Cache_Controller.SM.Data_Exclusive |          12     92.31%     92.31% |           1      7.69%    100.00%
system.ruby.L0Cache_Controller.SM.Data_Exclusive::total           13                      
system.ruby.L1Cache_Controller.Load      |        2780      0.61%      0.61% |      449683     99.39%    100.00%
system.ruby.L1Cache_Controller.Load::total       452463                      
system.ruby.L1Cache_Controller.Store     |      286345     99.55%     99.55% |        1281      0.45%    100.00%
system.ruby.L1Cache_Controller.Store::total       287626                      
system.ruby.L1Cache_Controller.WriteBack |      286131     39.72%     39.72% |      434238     60.28%    100.00%
system.ruby.L1Cache_Controller.WriteBack::total       720369                      
system.ruby.L1Cache_Controller.L0_DataAck |         694     33.90%     33.90% |        1353     66.10%    100.00%
system.ruby.L1Cache_Controller.L0_DataAck::total         2047                      
system.ruby.L1Cache_Controller.Inv       |           2     14.29%     14.29% |          12     85.71%    100.00%
system.ruby.L1Cache_Controller.Inv::total           14                      
system.ruby.L1Cache_Controller.L0_Invalidate_Own |        3518     11.96%     11.96% |       25900     88.04%    100.00%
system.ruby.L1Cache_Controller.L0_Invalidate_Own::total        29418                      
system.ruby.L1Cache_Controller.L0_Invalidate_Else |         668     95.70%     95.70% |          30      4.30%    100.00%
system.ruby.L1Cache_Controller.L0_Invalidate_Else::total          698                      
system.ruby.L1Cache_Controller.L1_Replacement |      281315     40.73%     40.73% |      409421     59.27%    100.00%
system.ruby.L1Cache_Controller.L1_Replacement::total       690736                      
system.ruby.L1Cache_Controller.Fwd_GETX  |           1     50.00%     50.00% |           1     50.00%    100.00%
system.ruby.L1Cache_Controller.Fwd_GETX::total            2                      
system.ruby.L1Cache_Controller.Fwd_GETS  |        3668     99.76%     99.76% |           9      0.24%    100.00%
system.ruby.L1Cache_Controller.Fwd_GETS::total         3677                      
system.ruby.L1Cache_Controller.Data      |           0      0.00%      0.00% |           1    100.00%    100.00%
system.ruby.L1Cache_Controller.Data::total            1                      
system.ruby.L1Cache_Controller.Data_Exclusive |        2671      0.65%      0.65% |      408540     99.35%    100.00%
system.ruby.L1Cache_Controller.Data_Exclusive::total       411211                      
system.ruby.L1Cache_Controller.DataS_fromL1 |           9      0.24%      0.24% |        3668     99.76%    100.00%
system.ruby.L1Cache_Controller.DataS_fromL1::total         3677                      
system.ruby.L1Cache_Controller.Data_all_Acks |      286318     99.55%     99.55% |        1308      0.45%    100.00%
system.ruby.L1Cache_Controller.Data_all_Acks::total       287626                      
system.ruby.L1Cache_Controller.L0_Ack    |        1399     10.75%     10.75% |       11612     89.25%    100.00%
system.ruby.L1Cache_Controller.L0_Ack::total        13011                      
system.ruby.L1Cache_Controller.Ack       |          12     92.31%     92.31% |           1      7.69%    100.00%
system.ruby.L1Cache_Controller.Ack::total           13                      
system.ruby.L1Cache_Controller.Ack_all   |          12     85.71%     85.71% |           2     14.29%    100.00%
system.ruby.L1Cache_Controller.Ack_all::total           14                      
system.ruby.L1Cache_Controller.WB_Ack    |      280695     40.68%     40.68% |      409344     59.32%    100.00%
system.ruby.L1Cache_Controller.WB_Ack::total       690039                      
system.ruby.L1Cache_Controller.NP.Load   |        2680      0.65%      0.65% |      412237     99.35%    100.00%
system.ruby.L1Cache_Controller.NP.Load::total       414917                      
system.ruby.L1Cache_Controller.NP.Store  |      286317     99.55%     99.55% |        1280      0.45%    100.00%
system.ruby.L1Cache_Controller.NP.Store::total       287597                      
system.ruby.L1Cache_Controller.I.Load    |           1    100.00%    100.00% |           0      0.00%    100.00%
system.ruby.L1Cache_Controller.I.Load::total            1                      
system.ruby.L1Cache_Controller.S.Load    |           1    100.00%    100.00% |           0      0.00%    100.00%
system.ruby.L1Cache_Controller.S.Load::total            1                      
system.ruby.L1Cache_Controller.S.Store   |          12     92.31%     92.31% |           1      7.69%    100.00%
system.ruby.L1Cache_Controller.S.Store::total           13                      
system.ruby.L1Cache_Controller.S.L0_Invalidate_Own |           0      0.00%      0.00% |          77    100.00%    100.00%
system.ruby.L1Cache_Controller.S.L0_Invalidate_Own::total           77                      
system.ruby.L1Cache_Controller.S.L0_Invalidate_Else |           1     14.29%     14.29% |           6     85.71%    100.00%
system.ruby.L1Cache_Controller.S.L0_Invalidate_Else::total            7                      
system.ruby.L1Cache_Controller.SS.Load   |          10    100.00%    100.00% |           0      0.00%    100.00%
system.ruby.L1Cache_Controller.SS.Load::total           10                      
system.ruby.L1Cache_Controller.SS.Inv    |           2     14.29%     14.29% |          12     85.71%    100.00%
system.ruby.L1Cache_Controller.SS.Inv::total           14                      
system.ruby.L1Cache_Controller.SS.L1_Replacement |         620     88.95%     88.95% |          77     11.05%    100.00%
system.ruby.L1Cache_Controller.SS.L1_Replacement::total          697                      
system.ruby.L1Cache_Controller.E.WriteBack |         516      0.13%      0.13% |      396854     99.87%    100.00%
system.ruby.L1Cache_Controller.E.WriteBack::total       397370                      
system.ruby.L1Cache_Controller.E.L0_Invalidate_Own |        1551     11.82%     11.82% |       11566     88.18%    100.00%
system.ruby.L1Cache_Controller.E.L0_Invalidate_Own::total        13117                      
system.ruby.L1Cache_Controller.E.L0_Invalidate_Else |           9     64.29%     64.29% |           5     35.71%    100.00%
system.ruby.L1Cache_Controller.E.L0_Invalidate_Else::total           14                      
system.ruby.L1Cache_Controller.EE.L1_Replacement |        1351     10.55%     10.55% |       11455     89.45%    100.00%
system.ruby.L1Cache_Controller.EE.L1_Replacement::total        12806                      
system.ruby.L1Cache_Controller.EE.Fwd_GETS |           7     63.64%     63.64% |           4     36.36%    100.00%
system.ruby.L1Cache_Controller.EE.Fwd_GETS::total           11                      
system.ruby.L1Cache_Controller.M.WriteBack |      285615     88.43%     88.43% |       37384     11.57%    100.00%
system.ruby.L1Cache_Controller.M.WriteBack::total       322999                      
system.ruby.L1Cache_Controller.M.L0_Invalidate_Own |         208     13.73%     13.73% |        1307     86.27%    100.00%
system.ruby.L1Cache_Controller.M.L0_Invalidate_Own::total         1515                      
system.ruby.L1Cache_Controller.M.L0_Invalidate_Else |         324     98.78%     98.78% |           4      1.22%    100.00%
system.ruby.L1Cache_Controller.M.L0_Invalidate_Else::total          328                      
system.ruby.L1Cache_Controller.MM.Load   |          88      0.23%      0.23% |       37446     99.77%    100.00%
system.ruby.L1Cache_Controller.MM.Load::total        37534                      
system.ruby.L1Cache_Controller.MM.Store  |          16    100.00%    100.00% |           0      0.00%    100.00%
system.ruby.L1Cache_Controller.MM.Store::total           16                      
system.ruby.L1Cache_Controller.MM.L1_Replacement |      279344     41.25%     41.25% |      397889     58.75%    100.00%
system.ruby.L1Cache_Controller.MM.L1_Replacement::total       677233                      
system.ruby.L1Cache_Controller.MM.Fwd_GETX |           1     50.00%     50.00% |           1     50.00%    100.00%
system.ruby.L1Cache_Controller.MM.Fwd_GETX::total            2                      
system.ruby.L1Cache_Controller.MM.Fwd_GETS |        3661     99.86%     99.86% |           5      0.14%    100.00%
system.ruby.L1Cache_Controller.MM.Fwd_GETS::total         3666                      
system.ruby.L1Cache_Controller.IS.Data_Exclusive |        2671      0.65%      0.65% |      408540     99.35%    100.00%
system.ruby.L1Cache_Controller.IS.Data_Exclusive::total       411211                      
system.ruby.L1Cache_Controller.IS.DataS_fromL1 |           9      0.24%      0.24% |        3668     99.76%    100.00%
system.ruby.L1Cache_Controller.IS.DataS_fromL1::total         3677                      
system.ruby.L1Cache_Controller.IS.Data_all_Acks |           1      3.33%      3.33% |          29     96.67%    100.00%
system.ruby.L1Cache_Controller.IS.Data_all_Acks::total           30                      
system.ruby.L1Cache_Controller.IM.Data   |           0      0.00%      0.00% |           1    100.00%    100.00%
system.ruby.L1Cache_Controller.IM.Data::total            1                      
system.ruby.L1Cache_Controller.IM.Data_all_Acks |      286317     99.56%     99.56% |        1279      0.44%    100.00%
system.ruby.L1Cache_Controller.IM.Data_all_Acks::total       287596                      
system.ruby.L1Cache_Controller.SM.Ack    |          12     92.31%     92.31% |           1      7.69%    100.00%
system.ruby.L1Cache_Controller.SM.Ack::total           13                      
system.ruby.L1Cache_Controller.SM.Ack_all |          12     85.71%     85.71% |           2     14.29%    100.00%
system.ruby.L1Cache_Controller.SM.Ack_all::total           14                      
system.ruby.L1Cache_Controller.M_I.WB_Ack |      280695     40.68%     40.68% |      409344     59.32%    100.00%
system.ruby.L1Cache_Controller.M_I.WB_Ack::total       690039                      
system.ruby.L1Cache_Controller.S_IL0.L0_Invalidate_Own |           0      0.00%      0.00% |          77    100.00%    100.00%
system.ruby.L1Cache_Controller.S_IL0.L0_Invalidate_Own::total           77                      
system.ruby.L1Cache_Controller.S_IL0.L0_Invalidate_Else |           1     14.29%     14.29% |           6     85.71%    100.00%
system.ruby.L1Cache_Controller.S_IL0.L0_Invalidate_Else::total            7                      
system.ruby.L1Cache_Controller.S_IL0.L0_Ack |           1      1.19%      1.19% |          83     98.81%    100.00%
system.ruby.L1Cache_Controller.S_IL0.L0_Ack::total           84                      
system.ruby.L1Cache_Controller.E_IL0.L0_DataAck |         202     64.33%     64.33% |         112     35.67%    100.00%
system.ruby.L1Cache_Controller.E_IL0.L0_DataAck::total          314                      
system.ruby.L1Cache_Controller.E_IL0.L0_Invalidate_Own |        1551     11.82%     11.82% |       11566     88.18%    100.00%
system.ruby.L1Cache_Controller.E_IL0.L0_Invalidate_Own::total        13117                      
system.ruby.L1Cache_Controller.E_IL0.L0_Invalidate_Else |           9     64.29%     64.29% |           5     35.71%    100.00%
system.ruby.L1Cache_Controller.E_IL0.L0_Invalidate_Else::total           14                      
system.ruby.L1Cache_Controller.E_IL0.L0_Ack |        1358     10.60%     10.60% |       11459     89.40%    100.00%
system.ruby.L1Cache_Controller.E_IL0.L0_Ack::total        12817                      
system.ruby.L1Cache_Controller.M_IL0.L0_DataAck |         492     28.39%     28.39% |        1241     71.61%    100.00%
system.ruby.L1Cache_Controller.M_IL0.L0_DataAck::total         1733                      
system.ruby.L1Cache_Controller.M_IL0.L0_Invalidate_Own |         208     13.73%     13.73% |        1307     86.27%    100.00%
system.ruby.L1Cache_Controller.M_IL0.L0_Invalidate_Own::total         1515                      
system.ruby.L1Cache_Controller.M_IL0.L0_Invalidate_Else |         324     98.78%     98.78% |           4      1.22%    100.00%
system.ruby.L1Cache_Controller.M_IL0.L0_Invalidate_Else::total          328                      
system.ruby.L1Cache_Controller.M_IL0.L0_Ack |          40     36.36%     36.36% |          70     63.64%    100.00%
system.ruby.L1Cache_Controller.M_IL0.L0_Ack::total          110                      
system.ruby.L2Cache_Controller.L1_GETS         414919      0.00%      0.00%
system.ruby.L2Cache_Controller.L1_GETX         287597      0.00%      0.00%
system.ruby.L2Cache_Controller.L1_UPGRADE           13      0.00%      0.00%
system.ruby.L2Cache_Controller.L1_PUTX         690039      0.00%      0.00%
system.ruby.L2Cache_Controller.Mem_Data        288843      0.00%      0.00%
system.ruby.L2Cache_Controller.WB_Data           3676      0.00%      0.00%
system.ruby.L2Cache_Controller.WB_Data_clean            1      0.00%      0.00%
system.ruby.L2Cache_Controller.Unblock           3677      0.00%      0.00%
system.ruby.L2Cache_Controller.Exclusive_Unblock       698821      0.00%      0.00%
system.ruby.L2Cache_Controller.NP.L1_GETS         1428      0.00%      0.00%
system.ruby.L2Cache_Controller.NP.L1_GETX       287415      0.00%      0.00%
system.ruby.L2Cache_Controller.SS.L1_GETS           28      0.00%      0.00%
system.ruby.L2Cache_Controller.SS.L1_GETX            1      0.00%      0.00%
system.ruby.L2Cache_Controller.SS.L1_UPGRADE           13      0.00%      0.00%
system.ruby.L2Cache_Controller.M.L1_GETS       409784      0.00%      0.00%
system.ruby.L2Cache_Controller.M.L1_GETX          179      0.00%      0.00%
system.ruby.L2Cache_Controller.MT.L1_GETS         3677      0.00%      0.00%
system.ruby.L2Cache_Controller.MT.L1_GETX            2      0.00%      0.00%
system.ruby.L2Cache_Controller.MT.L1_PUTX       690039      0.00%      0.00%
system.ruby.L2Cache_Controller.ISS.L1_GETS            1      0.00%      0.00%
system.ruby.L2Cache_Controller.ISS.Mem_Data         1427      0.00%      0.00%
system.ruby.L2Cache_Controller.IS.Mem_Data            1      0.00%      0.00%
system.ruby.L2Cache_Controller.IM.Mem_Data       287415      0.00%      0.00%
system.ruby.L2Cache_Controller.SS_MB.L1_GETS            1      0.00%      0.00%
system.ruby.L2Cache_Controller.SS_MB.Exclusive_Unblock           14      0.00%      0.00%
system.ruby.L2Cache_Controller.MT_MB.Exclusive_Unblock       698807      0.00%      0.00%
system.ruby.L2Cache_Controller.MT_IIB.WB_Data         3676      0.00%      0.00%
system.ruby.L2Cache_Controller.MT_IIB.WB_Data_clean            1      0.00%      0.00%
system.ruby.L2Cache_Controller.MT_SB.Unblock         3677      0.00%      0.00%

---------- End Simulation Statistics   ----------
