
---------- Begin Simulation Statistics ----------
sim_seconds                                  5.664095                       # Number of seconds simulated
sim_ticks                                5664095487000                       # Number of ticks simulated
final_tick                               5664095487000                       # Number of ticks from beginning of simulation (restored from checkpoints and never reset)
sim_freq                                 1000000000000                       # Frequency of simulated ticks
host_inst_rate                                 139361                       # Simulator instruction rate (inst/s)
host_op_rate                                   390257                       # Simulator op (including micro ops) rate (op/s)
host_tick_rate                              232750530                       # Simulator tick rate (ticks/s)
host_mem_usage                                3922548                       # Number of bytes of host memory used
host_seconds                                 24335.48                       # Real time elapsed on the host
sim_insts                                  3391406023                       # Number of instructions simulated
sim_ops                                    9497101134                       # Number of ops (including micro ops) simulated
system.voltage_domain.voltage                       1                       # Voltage in Volts
system.clk_domain.clock                          1000                       # Clock period in ticks
system.mem_ctrls.bytes_read::ruby.dir_cntrl0    272434624                       # Number of bytes read from this memory
system.mem_ctrls.bytes_read::total          272434624                       # Number of bytes read from this memory
system.mem_ctrls.bytes_written::ruby.dir_cntrl0    217131392                       # Number of bytes written to this memory
system.mem_ctrls.bytes_written::total       217131392                       # Number of bytes written to this memory
system.mem_ctrls.num_reads::ruby.dir_cntrl0      4256791                       # Number of read requests responded to by this memory
system.mem_ctrls.num_reads::total             4256791                       # Number of read requests responded to by this memory
system.mem_ctrls.num_writes::ruby.dir_cntrl0      3392678                       # Number of write requests responded to by this memory
system.mem_ctrls.num_writes::total            3392678                       # Number of write requests responded to by this memory
system.mem_ctrls.bw_read::ruby.dir_cntrl0     48098522                       # Total read bandwidth from this memory (bytes/s)
system.mem_ctrls.bw_read::total              48098522                       # Total read bandwidth from this memory (bytes/s)
system.mem_ctrls.bw_write::ruby.dir_cntrl0     38334698                       # Write bandwidth from this memory (bytes/s)
system.mem_ctrls.bw_write::total             38334698                       # Write bandwidth from this memory (bytes/s)
system.mem_ctrls.bw_total::ruby.dir_cntrl0     86433221                       # Total bandwidth to/from this memory (bytes/s)
system.mem_ctrls.bw_total::total             86433221                       # Total bandwidth to/from this memory (bytes/s)
system.mem_ctrls.memReq                       7649469                       # Total number of memory requests
system.mem_ctrls.memRead                      4256791                       # Number of memory reads
system.mem_ctrls.memWrite                     3392678                       # Number of memory writes
system.mem_ctrls.memRefresh                  60841975                       # Number of memory refreshes
system.mem_ctrls.memWaitCycles               31119850                       # Delay stalled at the head of the bank queue
system.mem_ctrls.memInputQ                       1673                       # Delay in the input queue
system.mem_ctrls.memBankQ                      160561                       # Delay behind the head of the bank queue
system.mem_ctrls.totalStalls                 31282084                       # Total number of stall cycles
system.mem_ctrls.stallsPerReq                4.089445                       # Expected number of stall cycles per request
system.mem_ctrls.memBankBusy                 30926294                       # memory stalls due to busy bank
system.mem_ctrls.memBusBusy                    151377                       # memory stalls due to busy bus
system.mem_ctrls.memReadWriteBusy                4341                       # memory stalls due to read write turnaround
system.mem_ctrls.memDataBusBusy                  1205                       # memory stalls due to read read turnaround
system.mem_ctrls.memArbWait                     36633                       # memory stalls due to arbitration
system.mem_ctrls.memBankCount            |      238981      3.12%      3.12% |      238769      3.12%      6.25% |      238706      3.12%      9.37% |      238710      3.12%     12.49% |      238885      3.12%     15.61% |      239015      3.12%     18.73% |      238990      3.12%     21.86% |      239059      3.13%     24.98% |      239163      3.13%     28.11% |      238939      3.12%     31.23% |      238882      3.12%     34.36% |      238864      3.12%     37.48% |      238804      3.12%     40.60% |      238957      3.12%     43.72% |      238869      3.12%     46.85% |      238867      3.12%     49.97% |      239135      3.13%     53.10% |      239193      3.13%     56.22% |      239176      3.13%     59.35% |      239180      3.13%     62.48% |      238919      3.12%     65.60% |      239098      3.13%     68.73% |      239073      3.13%     71.85% |      239371      3.13%     74.98% |      239432      3.13%     78.11% |      239224      3.13%     81.24% |      239210      3.13%     84.36% |      239233      3.13%     87.49% |      239201      3.13%     90.62% |      239282      3.13%     93.75% |      239242      3.13%     96.88% |      239040      3.12%    100.00% # Number of accesses per bank
system.mem_ctrls.memBankCount::total          7649469                       # Number of accesses per bank
system.cpu_voltage_domain.voltage                   1                       # Voltage in Volts
system.cpu_clk_domain.clock                       500                       # Clock period in ticks
system.cpu0.apic_clk_domain.clock                8000                       # Clock period in ticks
system.cpu0.workload.num_syscalls                 180                       # Number of system calls
system.cpu0.numCycles                     11328190974                       # number of cpu cycles simulated
system.cpu0.numWorkItemsStarted                     0                       # number of work items this cpu started
system.cpu0.numWorkItemsCompleted                   0                       # number of work items this cpu completed
system.cpu0.committedInsts                 3159097095                       # Number of instructions committed
system.cpu0.committedOps                   9032508354                       # Number of ops (including micro ops) committed
system.cpu0.num_int_alu_accesses           8520215083                       # Number of integer alu accesses
system.cpu0.num_fp_alu_accesses             216644550                       # Number of float alu accesses
system.cpu0.num_func_calls                  304262268                       # number of times a function call or return occured
system.cpu0.num_conditional_control_insts    697811626                       # number of instructions that are conditional controls
system.cpu0.num_int_insts                  8520215083                       # number of integer instructions
system.cpu0.num_fp_insts                    216644550                       # number of float instructions
system.cpu0.num_int_register_reads        17949020435                       # number of times the integer registers were read
system.cpu0.num_int_register_writes        8489741301                       # number of times the integer registers were written
system.cpu0.num_fp_register_reads           348151590                       # number of times the floating registers were read
system.cpu0.num_fp_register_writes          170275978                       # number of times the floating registers were written
system.cpu0.num_cc_register_reads          7216167479                       # number of times the CC registers were read
system.cpu0.num_cc_register_writes         2704891914                       # number of times the CC registers were written
system.cpu0.num_mem_refs                   1375485993                       # number of memory refs
system.cpu0.num_load_insts                  835419824                       # Number of load instructions
system.cpu0.num_store_insts                 540066169                       # Number of store instructions
system.cpu0.num_idle_cycles                  0.002000                       # Number of idle cycles
system.cpu0.num_busy_cycles              11328190973.998001                       # Number of busy cycles
system.cpu0.not_idle_fraction                1.000000                       # Percentage of non-idle cycles
system.cpu0.idle_fraction                    0.000000                       # Percentage of idle cycles
system.cpu0.Branches                       1148049133                       # Number of branches fetched
system.cpu0.op_class::No_OpClass            177947949      1.97%      1.97% # Class of executed instruction
system.cpu0.op_class::IntAlu               6548845290     72.50%     74.47% # Class of executed instruction
system.cpu0.op_class::IntMult                     389      0.00%     74.47% # Class of executed instruction
system.cpu0.op_class::IntDiv                759953512      8.41%     82.89% # Class of executed instruction
system.cpu0.op_class::FloatAdd              170275221      1.89%     84.77% # Class of executed instruction
system.cpu0.op_class::FloatCmp                      0      0.00%     84.77% # Class of executed instruction
system.cpu0.op_class::FloatCvt                      0      0.00%     84.77% # Class of executed instruction
system.cpu0.op_class::FloatMult                     0      0.00%     84.77% # Class of executed instruction
system.cpu0.op_class::FloatDiv                      0      0.00%     84.77% # Class of executed instruction
system.cpu0.op_class::FloatSqrt                     0      0.00%     84.77% # Class of executed instruction
system.cpu0.op_class::SimdAdd                       0      0.00%     84.77% # Class of executed instruction
system.cpu0.op_class::SimdAddAcc                    0      0.00%     84.77% # Class of executed instruction
system.cpu0.op_class::SimdAlu                       0      0.00%     84.77% # Class of executed instruction
system.cpu0.op_class::SimdCmp                       0      0.00%     84.77% # Class of executed instruction
system.cpu0.op_class::SimdCvt                       0      0.00%     84.77% # Class of executed instruction
system.cpu0.op_class::SimdMisc                      0      0.00%     84.77% # Class of executed instruction
system.cpu0.op_class::SimdMult                      0      0.00%     84.77% # Class of executed instruction
system.cpu0.op_class::SimdMultAcc                   0      0.00%     84.77% # Class of executed instruction
system.cpu0.op_class::SimdShift                     0      0.00%     84.77% # Class of executed instruction
system.cpu0.op_class::SimdShiftAcc                  0      0.00%     84.77% # Class of executed instruction
system.cpu0.op_class::SimdSqrt                      0      0.00%     84.77% # Class of executed instruction
system.cpu0.op_class::SimdFloatAdd                  0      0.00%     84.77% # Class of executed instruction
system.cpu0.op_class::SimdFloatAlu                  0      0.00%     84.77% # Class of executed instruction
system.cpu0.op_class::SimdFloatCmp                  0      0.00%     84.77% # Class of executed instruction
system.cpu0.op_class::SimdFloatCvt                  0      0.00%     84.77% # Class of executed instruction
system.cpu0.op_class::SimdFloatDiv                  0      0.00%     84.77% # Class of executed instruction
system.cpu0.op_class::SimdFloatMisc                 0      0.00%     84.77% # Class of executed instruction
system.cpu0.op_class::SimdFloatMult                 0      0.00%     84.77% # Class of executed instruction
system.cpu0.op_class::SimdFloatMultAcc              0      0.00%     84.77% # Class of executed instruction
system.cpu0.op_class::SimdFloatSqrt                 0      0.00%     84.77% # Class of executed instruction
system.cpu0.op_class::MemRead               835419824      9.25%     94.02% # Class of executed instruction
system.cpu0.op_class::MemWrite              540066169      5.98%    100.00% # Class of executed instruction
system.cpu0.op_class::IprAccess                     0      0.00%    100.00% # Class of executed instruction
system.cpu0.op_class::InstPrefetch                  0      0.00%    100.00% # Class of executed instruction
system.cpu0.op_class::total                9032508354                       # Class of executed instruction
system.cpu1.apic_clk_domain.clock                8000                       # Clock period in ticks
system.cpu1.numCycles                     11327927904                       # number of cpu cycles simulated
system.cpu1.numWorkItemsStarted                     0                       # number of work items this cpu started
system.cpu1.numWorkItemsCompleted                   0                       # number of work items this cpu completed
system.cpu1.committedInsts                   58077232                       # Number of instructions committed
system.cpu1.committedOps                    116148195                       # Number of ops (including micro ops) committed
system.cpu1.num_int_alu_accesses             87175319                       # Number of integer alu accesses
system.cpu1.num_fp_alu_accesses              56894279                       # Number of float alu accesses
system.cpu1.num_func_calls                     161815                       # number of times a function call or return occured
system.cpu1.num_conditional_control_insts      7134452                       # number of instructions that are conditional controls
system.cpu1.num_int_insts                    87175319                       # number of integer instructions
system.cpu1.num_fp_insts                     56894279                       # number of float instructions
system.cpu1.num_int_register_reads          153196448                       # number of times the integer registers were read
system.cpu1.num_int_register_writes          52032168                       # number of times the integer registers were written
system.cpu1.num_fp_register_reads            86190677                       # number of times the floating registers were read
system.cpu1.num_fp_register_writes           56813392                       # number of times the floating registers were written
system.cpu1.num_cc_register_reads            42887640                       # number of times the CC registers were read
system.cpu1.num_cc_register_writes           42862530                       # number of times the CC registers were written
system.cpu1.num_mem_refs                     28338623                       # number of memory refs
system.cpu1.num_load_insts                   28176742                       # Number of load instructions
system.cpu1.num_store_insts                    161881                       # Number of store instructions
system.cpu1.num_idle_cycles              11072556444.525946                       # Number of idle cycles
system.cpu1.num_busy_cycles              255371459.474054                       # Number of busy cycles
system.cpu1.not_idle_fraction                0.022544                       # Percentage of non-idle cycles
system.cpu1.idle_fraction                    0.977456                       # Percentage of idle cycles
system.cpu1.Branches                          7383422                       # Number of branches fetched
system.cpu1.op_class::No_OpClass                    2      0.00%      0.00% # Class of executed instruction
system.cpu1.op_class::IntAlu                 58594024     50.45%     50.45% # Class of executed instruction
system.cpu1.op_class::IntMult                  242657      0.21%     50.66% # Class of executed instruction
system.cpu1.op_class::IntDiv                       14      0.00%     50.66% # Class of executed instruction
system.cpu1.op_class::FloatAdd               28972875     24.94%     75.60% # Class of executed instruction
system.cpu1.op_class::FloatCmp                      0      0.00%     75.60% # Class of executed instruction
system.cpu1.op_class::FloatCvt                      0      0.00%     75.60% # Class of executed instruction
system.cpu1.op_class::FloatMult                     0      0.00%     75.60% # Class of executed instruction
system.cpu1.op_class::FloatDiv                      0      0.00%     75.60% # Class of executed instruction
system.cpu1.op_class::FloatSqrt                     0      0.00%     75.60% # Class of executed instruction
system.cpu1.op_class::SimdAdd                       0      0.00%     75.60% # Class of executed instruction
system.cpu1.op_class::SimdAddAcc                    0      0.00%     75.60% # Class of executed instruction
system.cpu1.op_class::SimdAlu                       0      0.00%     75.60% # Class of executed instruction
system.cpu1.op_class::SimdCmp                       0      0.00%     75.60% # Class of executed instruction
system.cpu1.op_class::SimdCvt                       0      0.00%     75.60% # Class of executed instruction
system.cpu1.op_class::SimdMisc                      0      0.00%     75.60% # Class of executed instruction
system.cpu1.op_class::SimdMult                      0      0.00%     75.60% # Class of executed instruction
system.cpu1.op_class::SimdMultAcc                   0      0.00%     75.60% # Class of executed instruction
system.cpu1.op_class::SimdShift                     0      0.00%     75.60% # Class of executed instruction
system.cpu1.op_class::SimdShiftAcc                  0      0.00%     75.60% # Class of executed instruction
system.cpu1.op_class::SimdSqrt                      0      0.00%     75.60% # Class of executed instruction
system.cpu1.op_class::SimdFloatAdd                  0      0.00%     75.60% # Class of executed instruction
system.cpu1.op_class::SimdFloatAlu                  0      0.00%     75.60% # Class of executed instruction
system.cpu1.op_class::SimdFloatCmp                  0      0.00%     75.60% # Class of executed instruction
system.cpu1.op_class::SimdFloatCvt                  0      0.00%     75.60% # Class of executed instruction
system.cpu1.op_class::SimdFloatDiv                  0      0.00%     75.60% # Class of executed instruction
system.cpu1.op_class::SimdFloatMisc                 0      0.00%     75.60% # Class of executed instruction
system.cpu1.op_class::SimdFloatMult                 0      0.00%     75.60% # Class of executed instruction
system.cpu1.op_class::SimdFloatMultAcc              0      0.00%     75.60% # Class of executed instruction
system.cpu1.op_class::SimdFloatSqrt                 0      0.00%     75.60% # Class of executed instruction
system.cpu1.op_class::MemRead                28176742     24.26%     99.86% # Class of executed instruction
system.cpu1.op_class::MemWrite                 161881      0.14%    100.00% # Class of executed instruction
system.cpu1.op_class::IprAccess                     0      0.00%    100.00% # Class of executed instruction
system.cpu1.op_class::InstPrefetch                  0      0.00%    100.00% # Class of executed instruction
system.cpu1.op_class::total                 116148195                       # Class of executed instruction
system.cpu2.apic_clk_domain.clock                8000                       # Clock period in ticks
system.cpu2.numCycles                     11327927888                       # number of cpu cycles simulated
system.cpu2.numWorkItemsStarted                     0                       # number of work items this cpu started
system.cpu2.numWorkItemsCompleted                   0                       # number of work items this cpu completed
system.cpu2.committedInsts                   58077232                       # Number of instructions committed
system.cpu2.committedOps                    116148195                       # Number of ops (including micro ops) committed
system.cpu2.num_int_alu_accesses             87175319                       # Number of integer alu accesses
system.cpu2.num_fp_alu_accesses              56894279                       # Number of float alu accesses
system.cpu2.num_func_calls                     161815                       # number of times a function call or return occured
system.cpu2.num_conditional_control_insts      7134452                       # number of instructions that are conditional controls
system.cpu2.num_int_insts                    87175319                       # number of integer instructions
system.cpu2.num_fp_insts                     56894279                       # number of float instructions
system.cpu2.num_int_register_reads          153196448                       # number of times the integer registers were read
system.cpu2.num_int_register_writes          52032168                       # number of times the integer registers were written
system.cpu2.num_fp_register_reads            86190677                       # number of times the floating registers were read
system.cpu2.num_fp_register_writes           56813392                       # number of times the floating registers were written
system.cpu2.num_cc_register_reads            42887640                       # number of times the CC registers were read
system.cpu2.num_cc_register_writes           42862530                       # number of times the CC registers were written
system.cpu2.num_mem_refs                     28338623                       # number of memory refs
system.cpu2.num_load_insts                   28176742                       # Number of load instructions
system.cpu2.num_store_insts                    161881                       # Number of store instructions
system.cpu2.num_idle_cycles              11072556966.874147                       # Number of idle cycles
system.cpu2.num_busy_cycles              255370921.125852                       # Number of busy cycles
system.cpu2.not_idle_fraction                0.022543                       # Percentage of non-idle cycles
system.cpu2.idle_fraction                    0.977457                       # Percentage of idle cycles
system.cpu2.Branches                          7383422                       # Number of branches fetched
system.cpu2.op_class::No_OpClass                    2      0.00%      0.00% # Class of executed instruction
system.cpu2.op_class::IntAlu                 58594024     50.45%     50.45% # Class of executed instruction
system.cpu2.op_class::IntMult                  242657      0.21%     50.66% # Class of executed instruction
system.cpu2.op_class::IntDiv                       14      0.00%     50.66% # Class of executed instruction
system.cpu2.op_class::FloatAdd               28972875     24.94%     75.60% # Class of executed instruction
system.cpu2.op_class::FloatCmp                      0      0.00%     75.60% # Class of executed instruction
system.cpu2.op_class::FloatCvt                      0      0.00%     75.60% # Class of executed instruction
system.cpu2.op_class::FloatMult                     0      0.00%     75.60% # Class of executed instruction
system.cpu2.op_class::FloatDiv                      0      0.00%     75.60% # Class of executed instruction
system.cpu2.op_class::FloatSqrt                     0      0.00%     75.60% # Class of executed instruction
system.cpu2.op_class::SimdAdd                       0      0.00%     75.60% # Class of executed instruction
system.cpu2.op_class::SimdAddAcc                    0      0.00%     75.60% # Class of executed instruction
system.cpu2.op_class::SimdAlu                       0      0.00%     75.60% # Class of executed instruction
system.cpu2.op_class::SimdCmp                       0      0.00%     75.60% # Class of executed instruction
system.cpu2.op_class::SimdCvt                       0      0.00%     75.60% # Class of executed instruction
system.cpu2.op_class::SimdMisc                      0      0.00%     75.60% # Class of executed instruction
system.cpu2.op_class::SimdMult                      0      0.00%     75.60% # Class of executed instruction
system.cpu2.op_class::SimdMultAcc                   0      0.00%     75.60% # Class of executed instruction
system.cpu2.op_class::SimdShift                     0      0.00%     75.60% # Class of executed instruction
system.cpu2.op_class::SimdShiftAcc                  0      0.00%     75.60% # Class of executed instruction
system.cpu2.op_class::SimdSqrt                      0      0.00%     75.60% # Class of executed instruction
system.cpu2.op_class::SimdFloatAdd                  0      0.00%     75.60% # Class of executed instruction
system.cpu2.op_class::SimdFloatAlu                  0      0.00%     75.60% # Class of executed instruction
system.cpu2.op_class::SimdFloatCmp                  0      0.00%     75.60% # Class of executed instruction
system.cpu2.op_class::SimdFloatCvt                  0      0.00%     75.60% # Class of executed instruction
system.cpu2.op_class::SimdFloatDiv                  0      0.00%     75.60% # Class of executed instruction
system.cpu2.op_class::SimdFloatMisc                 0      0.00%     75.60% # Class of executed instruction
system.cpu2.op_class::SimdFloatMult                 0      0.00%     75.60% # Class of executed instruction
system.cpu2.op_class::SimdFloatMultAcc              0      0.00%     75.60% # Class of executed instruction
system.cpu2.op_class::SimdFloatSqrt                 0      0.00%     75.60% # Class of executed instruction
system.cpu2.op_class::MemRead                28176742     24.26%     99.86% # Class of executed instruction
system.cpu2.op_class::MemWrite                 161881      0.14%    100.00% # Class of executed instruction
system.cpu2.op_class::IprAccess                     0      0.00%    100.00% # Class of executed instruction
system.cpu2.op_class::InstPrefetch                  0      0.00%    100.00% # Class of executed instruction
system.cpu2.op_class::total                 116148195                       # Class of executed instruction
system.cpu3.apic_clk_domain.clock                8000                       # Clock period in ticks
system.cpu3.numCycles                     11327927908                       # number of cpu cycles simulated
system.cpu3.numWorkItemsStarted                     0                       # number of work items this cpu started
system.cpu3.numWorkItemsCompleted                   0                       # number of work items this cpu completed
system.cpu3.committedInsts                   58077232                       # Number of instructions committed
system.cpu3.committedOps                    116148195                       # Number of ops (including micro ops) committed
system.cpu3.num_int_alu_accesses             87175319                       # Number of integer alu accesses
system.cpu3.num_fp_alu_accesses              56894279                       # Number of float alu accesses
system.cpu3.num_func_calls                     161815                       # number of times a function call or return occured
system.cpu3.num_conditional_control_insts      7134452                       # number of instructions that are conditional controls
system.cpu3.num_int_insts                    87175319                       # number of integer instructions
system.cpu3.num_fp_insts                     56894279                       # number of float instructions
system.cpu3.num_int_register_reads          153196448                       # number of times the integer registers were read
system.cpu3.num_int_register_writes          52032168                       # number of times the integer registers were written
system.cpu3.num_fp_register_reads            86190677                       # number of times the floating registers were read
system.cpu3.num_fp_register_writes           56813392                       # number of times the floating registers were written
system.cpu3.num_cc_register_reads            42887640                       # number of times the CC registers were read
system.cpu3.num_cc_register_writes           42862530                       # number of times the CC registers were written
system.cpu3.num_mem_refs                     28338623                       # number of memory refs
system.cpu3.num_load_insts                   28176742                       # Number of load instructions
system.cpu3.num_store_insts                    161881                       # Number of store instructions
system.cpu3.num_idle_cycles              11072557402.413618                       # Number of idle cycles
system.cpu3.num_busy_cycles              255370505.586382                       # Number of busy cycles
system.cpu3.not_idle_fraction                0.022543                       # Percentage of non-idle cycles
system.cpu3.idle_fraction                    0.977457                       # Percentage of idle cycles
system.cpu3.Branches                          7383422                       # Number of branches fetched
system.cpu3.op_class::No_OpClass                    2      0.00%      0.00% # Class of executed instruction
system.cpu3.op_class::IntAlu                 58594024     50.45%     50.45% # Class of executed instruction
system.cpu3.op_class::IntMult                  242657      0.21%     50.66% # Class of executed instruction
system.cpu3.op_class::IntDiv                       14      0.00%     50.66% # Class of executed instruction
system.cpu3.op_class::FloatAdd               28972875     24.94%     75.60% # Class of executed instruction
system.cpu3.op_class::FloatCmp                      0      0.00%     75.60% # Class of executed instruction
system.cpu3.op_class::FloatCvt                      0      0.00%     75.60% # Class of executed instruction
system.cpu3.op_class::FloatMult                     0      0.00%     75.60% # Class of executed instruction
system.cpu3.op_class::FloatDiv                      0      0.00%     75.60% # Class of executed instruction
system.cpu3.op_class::FloatSqrt                     0      0.00%     75.60% # Class of executed instruction
system.cpu3.op_class::SimdAdd                       0      0.00%     75.60% # Class of executed instruction
system.cpu3.op_class::SimdAddAcc                    0      0.00%     75.60% # Class of executed instruction
system.cpu3.op_class::SimdAlu                       0      0.00%     75.60% # Class of executed instruction
system.cpu3.op_class::SimdCmp                       0      0.00%     75.60% # Class of executed instruction
system.cpu3.op_class::SimdCvt                       0      0.00%     75.60% # Class of executed instruction
system.cpu3.op_class::SimdMisc                      0      0.00%     75.60% # Class of executed instruction
system.cpu3.op_class::SimdMult                      0      0.00%     75.60% # Class of executed instruction
system.cpu3.op_class::SimdMultAcc                   0      0.00%     75.60% # Class of executed instruction
system.cpu3.op_class::SimdShift                     0      0.00%     75.60% # Class of executed instruction
system.cpu3.op_class::SimdShiftAcc                  0      0.00%     75.60% # Class of executed instruction
system.cpu3.op_class::SimdSqrt                      0      0.00%     75.60% # Class of executed instruction
system.cpu3.op_class::SimdFloatAdd                  0      0.00%     75.60% # Class of executed instruction
system.cpu3.op_class::SimdFloatAlu                  0      0.00%     75.60% # Class of executed instruction
system.cpu3.op_class::SimdFloatCmp                  0      0.00%     75.60% # Class of executed instruction
system.cpu3.op_class::SimdFloatCvt                  0      0.00%     75.60% # Class of executed instruction
system.cpu3.op_class::SimdFloatDiv                  0      0.00%     75.60% # Class of executed instruction
system.cpu3.op_class::SimdFloatMisc                 0      0.00%     75.60% # Class of executed instruction
system.cpu3.op_class::SimdFloatMult                 0      0.00%     75.60% # Class of executed instruction
system.cpu3.op_class::SimdFloatMultAcc              0      0.00%     75.60% # Class of executed instruction
system.cpu3.op_class::SimdFloatSqrt                 0      0.00%     75.60% # Class of executed instruction
system.cpu3.op_class::MemRead                28176742     24.26%     99.86% # Class of executed instruction
system.cpu3.op_class::MemWrite                 161881      0.14%    100.00% # Class of executed instruction
system.cpu3.op_class::IprAccess                     0      0.00%    100.00% # Class of executed instruction
system.cpu3.op_class::InstPrefetch                  0      0.00%    100.00% # Class of executed instruction
system.cpu3.op_class::total                 116148195                       # Class of executed instruction
system.cpu4.apic_clk_domain.clock                8000                       # Clock period in ticks
system.cpu4.numCycles                     11327927949                       # number of cpu cycles simulated
system.cpu4.numWorkItemsStarted                     0                       # number of work items this cpu started
system.cpu4.numWorkItemsCompleted                   0                       # number of work items this cpu completed
system.cpu4.committedInsts                   58077232                       # Number of instructions committed
system.cpu4.committedOps                    116148195                       # Number of ops (including micro ops) committed
system.cpu4.num_int_alu_accesses             87175319                       # Number of integer alu accesses
system.cpu4.num_fp_alu_accesses              56894279                       # Number of float alu accesses
system.cpu4.num_func_calls                     161815                       # number of times a function call or return occured
system.cpu4.num_conditional_control_insts      7134452                       # number of instructions that are conditional controls
system.cpu4.num_int_insts                    87175319                       # number of integer instructions
system.cpu4.num_fp_insts                     56894279                       # number of float instructions
system.cpu4.num_int_register_reads          153196448                       # number of times the integer registers were read
system.cpu4.num_int_register_writes          52032168                       # number of times the integer registers were written
system.cpu4.num_fp_register_reads            86190677                       # number of times the floating registers were read
system.cpu4.num_fp_register_writes           56813392                       # number of times the floating registers were written
system.cpu4.num_cc_register_reads            42887640                       # number of times the CC registers were read
system.cpu4.num_cc_register_writes           42862530                       # number of times the CC registers were written
system.cpu4.num_mem_refs                     28338623                       # number of memory refs
system.cpu4.num_load_insts                   28176742                       # Number of load instructions
system.cpu4.num_store_insts                    161881                       # Number of store instructions
system.cpu4.num_idle_cycles              11072557829.480352                       # Number of idle cycles
system.cpu4.num_busy_cycles              255370119.519648                       # Number of busy cycles
system.cpu4.not_idle_fraction                0.022543                       # Percentage of non-idle cycles
system.cpu4.idle_fraction                    0.977457                       # Percentage of idle cycles
system.cpu4.Branches                          7383422                       # Number of branches fetched
system.cpu4.op_class::No_OpClass                    2      0.00%      0.00% # Class of executed instruction
system.cpu4.op_class::IntAlu                 58594024     50.45%     50.45% # Class of executed instruction
system.cpu4.op_class::IntMult                  242657      0.21%     50.66% # Class of executed instruction
system.cpu4.op_class::IntDiv                       14      0.00%     50.66% # Class of executed instruction
system.cpu4.op_class::FloatAdd               28972875     24.94%     75.60% # Class of executed instruction
system.cpu4.op_class::FloatCmp                      0      0.00%     75.60% # Class of executed instruction
system.cpu4.op_class::FloatCvt                      0      0.00%     75.60% # Class of executed instruction
system.cpu4.op_class::FloatMult                     0      0.00%     75.60% # Class of executed instruction
system.cpu4.op_class::FloatDiv                      0      0.00%     75.60% # Class of executed instruction
system.cpu4.op_class::FloatSqrt                     0      0.00%     75.60% # Class of executed instruction
system.cpu4.op_class::SimdAdd                       0      0.00%     75.60% # Class of executed instruction
system.cpu4.op_class::SimdAddAcc                    0      0.00%     75.60% # Class of executed instruction
system.cpu4.op_class::SimdAlu                       0      0.00%     75.60% # Class of executed instruction
system.cpu4.op_class::SimdCmp                       0      0.00%     75.60% # Class of executed instruction
system.cpu4.op_class::SimdCvt                       0      0.00%     75.60% # Class of executed instruction
system.cpu4.op_class::SimdMisc                      0      0.00%     75.60% # Class of executed instruction
system.cpu4.op_class::SimdMult                      0      0.00%     75.60% # Class of executed instruction
system.cpu4.op_class::SimdMultAcc                   0      0.00%     75.60% # Class of executed instruction
system.cpu4.op_class::SimdShift                     0      0.00%     75.60% # Class of executed instruction
system.cpu4.op_class::SimdShiftAcc                  0      0.00%     75.60% # Class of executed instruction
system.cpu4.op_class::SimdSqrt                      0      0.00%     75.60% # Class of executed instruction
system.cpu4.op_class::SimdFloatAdd                  0      0.00%     75.60% # Class of executed instruction
system.cpu4.op_class::SimdFloatAlu                  0      0.00%     75.60% # Class of executed instruction
system.cpu4.op_class::SimdFloatCmp                  0      0.00%     75.60% # Class of executed instruction
system.cpu4.op_class::SimdFloatCvt                  0      0.00%     75.60% # Class of executed instruction
system.cpu4.op_class::SimdFloatDiv                  0      0.00%     75.60% # Class of executed instruction
system.cpu4.op_class::SimdFloatMisc                 0      0.00%     75.60% # Class of executed instruction
system.cpu4.op_class::SimdFloatMult                 0      0.00%     75.60% # Class of executed instruction
system.cpu4.op_class::SimdFloatMultAcc              0      0.00%     75.60% # Class of executed instruction
system.cpu4.op_class::SimdFloatSqrt                 0      0.00%     75.60% # Class of executed instruction
system.cpu4.op_class::MemRead                28176742     24.26%     99.86% # Class of executed instruction
system.cpu4.op_class::MemWrite                 161881      0.14%    100.00% # Class of executed instruction
system.cpu4.op_class::IprAccess                     0      0.00%    100.00% # Class of executed instruction
system.cpu4.op_class::InstPrefetch                  0      0.00%    100.00% # Class of executed instruction
system.cpu4.op_class::total                 116148195                       # Class of executed instruction
system.ruby.clk_domain.clock                      500                       # Clock period in ticks
system.ruby.delayHist::bucket_size                  8                       # delay histogram for all message
system.ruby.delayHist::max_bucket                  79                       # delay histogram for all message
system.ruby.delayHist::samples               72899410                       # delay histogram for all message
system.ruby.delayHist::mean                  0.756382                       # delay histogram for all message
system.ruby.delayHist::stdev                 2.451075                       # delay histogram for all message
system.ruby.delayHist                    |    66986255     91.89%     91.89% |     5662497      7.77%     99.66% |      244829      0.34%     99.99% |        3826      0.01%    100.00% |         191      0.00%    100.00% |          50      0.00%    100.00% |         949      0.00%    100.00% |         811      0.00%    100.00% |           2      0.00%    100.00% |           0      0.00%    100.00% # delay histogram for all message
system.ruby.delayHist::total                 72899410                       # delay histogram for all message
system.ruby.outstanding_req_hist::bucket_size            1                      
system.ruby.outstanding_req_hist::max_bucket            9                      
system.ruby.outstanding_req_hist::samples   5905675153                      
system.ruby.outstanding_req_hist::mean       1.000200                      
system.ruby.outstanding_req_hist::gmean      1.000138                      
system.ruby.outstanding_req_hist::stdev      0.014132                      
system.ruby.outstanding_req_hist         |           0      0.00%      0.00% |  5904495441     99.98%     99.98% |     1179712      0.02%    100.00% |           0      0.00%    100.00% |           0      0.00%    100.00% |           0      0.00%    100.00% |           0      0.00%    100.00% |           0      0.00%    100.00% |           0      0.00%    100.00% |           0      0.00%    100.00%
system.ruby.outstanding_req_hist::total    5905675153                      
system.ruby.latency_hist::bucket_size              32                      
system.ruby.latency_hist::max_bucket              319                      
system.ruby.latency_hist::samples          5905675153                      
system.ruby.latency_hist::mean               1.091457                      
system.ruby.latency_hist::gmean              1.007095                      
system.ruby.latency_hist::stdev              2.475472                      
system.ruby.latency_hist                 |  5899742297     99.90%     99.90% |     1433581      0.02%     99.92% |     4447331      0.08%    100.00% |       51832      0.00%    100.00% |         104      0.00%    100.00% |           6      0.00%    100.00% |           2      0.00%    100.00% |           0      0.00%    100.00% |           0      0.00%    100.00% |           0      0.00%    100.00%
system.ruby.latency_hist::total            5905675153                      
system.ruby.hit_latency_hist::bucket_size           32                      
system.ruby.hit_latency_hist::max_bucket          319                      
system.ruby.hit_latency_hist::samples      5905675153                      
system.ruby.hit_latency_hist::mean           1.091457                      
system.ruby.hit_latency_hist::gmean          1.007095                      
system.ruby.hit_latency_hist::stdev          2.475472                      
system.ruby.hit_latency_hist             |  5899742297     99.90%     99.90% |     1433581      0.02%     99.92% |     4447331      0.08%    100.00% |       51832      0.00%    100.00% |         104      0.00%    100.00% |           6      0.00%    100.00% |           2      0.00%    100.00% |           0      0.00%    100.00% |           0      0.00%    100.00% |           0      0.00%    100.00%
system.ruby.hit_latency_hist::total        5905675153                      
system.ruby.l0_cntrl0.Dcache.demand_hits   1371135146                       # Number of cache demand hits
system.ruby.l0_cntrl0.Dcache.demand_misses      4350911                       # Number of cache demand misses
system.ruby.l0_cntrl0.Dcache.demand_accesses   1375486057                       # Number of cache demand accesses
system.ruby.l0_cntrl0.Icache.demand_hits   4117620374                       # Number of cache demand hits
system.ruby.l0_cntrl0.Icache.demand_misses        11822                       # Number of cache demand misses
system.ruby.l0_cntrl0.Icache.demand_accesses   4117632196                       # Number of cache demand accesses
system.ruby.l0_cntrl0.Zcache.demand_hits            0                       # Number of cache demand hits
system.ruby.l0_cntrl0.Zcache.demand_misses            0                       # Number of cache demand misses
system.ruby.l0_cntrl0.Zcache.demand_accesses            0                       # Number of cache demand accesses
system.ruby.l0_cntrl1.Dcache.demand_hits     26827168                       # Number of cache demand hits
system.ruby.l0_cntrl1.Dcache.demand_misses      1806367                       # Number of cache demand misses
system.ruby.l0_cntrl1.Dcache.demand_accesses     28633535                       # Number of cache demand accesses
system.ruby.l0_cntrl1.Icache.demand_hits     74503512                       # Number of cache demand hits
system.ruby.l0_cntrl1.Icache.demand_misses         2178                       # Number of cache demand misses
system.ruby.l0_cntrl1.Icache.demand_accesses     74505690                       # Number of cache demand accesses
system.ruby.l0_cntrl1.Zcache.demand_hits            0                       # Number of cache demand hits
system.ruby.l0_cntrl1.Zcache.demand_misses            0                       # Number of cache demand misses
system.ruby.l0_cntrl1.Zcache.demand_accesses            0                       # Number of cache demand accesses
system.ruby.l0_cntrl2.Dcache.demand_hits     26830629                       # Number of cache demand hits
system.ruby.l0_cntrl2.Dcache.demand_misses      1802906                       # Number of cache demand misses
system.ruby.l0_cntrl2.Dcache.demand_accesses     28633535                       # Number of cache demand accesses
system.ruby.l0_cntrl2.Icache.demand_hits     74503518                       # Number of cache demand hits
system.ruby.l0_cntrl2.Icache.demand_misses         2172                       # Number of cache demand misses
system.ruby.l0_cntrl2.Icache.demand_accesses     74505690                       # Number of cache demand accesses
system.ruby.l0_cntrl2.Zcache.demand_hits            0                       # Number of cache demand hits
system.ruby.l0_cntrl2.Zcache.demand_misses            0                       # Number of cache demand misses
system.ruby.l0_cntrl2.Zcache.demand_accesses            0                       # Number of cache demand accesses
system.ruby.l0_cntrl3.Dcache.demand_hits     26830193                       # Number of cache demand hits
system.ruby.l0_cntrl3.Dcache.demand_misses      1803342                       # Number of cache demand misses
system.ruby.l0_cntrl3.Dcache.demand_accesses     28633535                       # Number of cache demand accesses
system.ruby.l0_cntrl3.Icache.demand_hits     74503550                       # Number of cache demand hits
system.ruby.l0_cntrl3.Icache.demand_misses         2140                       # Number of cache demand misses
system.ruby.l0_cntrl3.Icache.demand_accesses     74505690                       # Number of cache demand accesses
system.ruby.l0_cntrl3.Zcache.demand_hits            0                       # Number of cache demand hits
system.ruby.l0_cntrl3.Zcache.demand_misses            0                       # Number of cache demand misses
system.ruby.l0_cntrl3.Zcache.demand_accesses            0                       # Number of cache demand accesses
system.ruby.l0_cntrl4.Dcache.demand_hits     26831207                       # Number of cache demand hits
system.ruby.l0_cntrl4.Dcache.demand_misses      1802328                       # Number of cache demand misses
system.ruby.l0_cntrl4.Dcache.demand_accesses     28633535                       # Number of cache demand accesses
system.ruby.l0_cntrl4.Icache.demand_hits     74503572                       # Number of cache demand hits
system.ruby.l0_cntrl4.Icache.demand_misses         2118                       # Number of cache demand misses
system.ruby.l0_cntrl4.Icache.demand_accesses     74505690                       # Number of cache demand accesses
system.ruby.l0_cntrl4.Zcache.demand_hits            0                       # Number of cache demand hits
system.ruby.l0_cntrl4.Zcache.demand_misses            0                       # Number of cache demand misses
system.ruby.l0_cntrl4.Zcache.demand_accesses            0                       # Number of cache demand accesses
system.ruby.l1_cntrl0.cache.demand_hits           196                       # Number of cache demand hits
system.ruby.l1_cntrl0.cache.demand_misses      4362537                       # Number of cache demand misses
system.ruby.l1_cntrl0.cache.demand_accesses      4362733                       # Number of cache demand accesses
system.ruby.l1_cntrl1.cache.demand_hits        154474                       # Number of cache demand hits
system.ruby.l1_cntrl1.cache.demand_misses      1654071                       # Number of cache demand misses
system.ruby.l1_cntrl1.cache.demand_accesses      1808545                       # Number of cache demand accesses
system.ruby.l1_cntrl2.cache.demand_hits        147211                       # Number of cache demand hits
system.ruby.l1_cntrl2.cache.demand_misses      1657867                       # Number of cache demand misses
system.ruby.l1_cntrl2.cache.demand_accesses      1805078                       # Number of cache demand accesses
system.ruby.l1_cntrl3.cache.demand_hits        149726                       # Number of cache demand hits
system.ruby.l1_cntrl3.cache.demand_misses      1655756                       # Number of cache demand misses
system.ruby.l1_cntrl3.cache.demand_accesses      1805482                       # Number of cache demand accesses
system.ruby.l1_cntrl4.cache.demand_hits        146724                       # Number of cache demand hits
system.ruby.l1_cntrl4.cache.demand_misses      1657722                       # Number of cache demand misses
system.ruby.l1_cntrl4.cache.demand_accesses      1804446                       # Number of cache demand accesses
system.ruby.l2_cntrl0.L2cache.demand_hits      5815891                       # Number of cache demand hits
system.ruby.l2_cntrl0.L2cache.demand_misses      5172062                       # Number of cache demand misses
system.ruby.l2_cntrl0.L2cache.demand_accesses     10987953                       # Number of cache demand accesses
system.ruby.l2_cntrl0.fully_busy_cycles           215                       # cycles for which number of transistions == max transitions
system.ruby.memctrl_clk_domain.clock             1500                       # Clock period in ticks
system.ruby.network.routers00.percent_links_utilized            0                      
system.ruby.network.routers01.percent_links_utilized            0                      
system.ruby.network.routers02.percent_links_utilized            0                      
system.ruby.network.routers03.percent_links_utilized            0                      
system.ruby.network.routers04.percent_links_utilized            0                      
system.ruby.network.routers05.percent_links_utilized     0.202142                      
system.ruby.network.routers05.msg_count.Control::0      4362537                      
system.ruby.network.routers05.msg_count.Request_Control::2         2607                      
system.ruby.network.routers05.msg_count.Response_Data::1      4365152                      
system.ruby.network.routers05.msg_count.Response_Control::1      4357818                      
system.ruby.network.routers05.msg_count.Response_Control::2      4362522                      
system.ruby.network.routers05.msg_count.Writeback_Data::0      4356923                      
system.ruby.network.routers05.msg_count.Writeback_Data::1         1257                      
system.ruby.network.routers05.msg_count.Writeback_Control::0          760                      
system.ruby.network.routers05.msg_bytes.Control::0     34900296                      
system.ruby.network.routers05.msg_bytes.Request_Control::2        20856                      
system.ruby.network.routers05.msg_bytes.Response_Data::1    314290944                      
system.ruby.network.routers05.msg_bytes.Response_Control::1     34862544                      
system.ruby.network.routers05.msg_bytes.Response_Control::2     34900176                      
system.ruby.network.routers05.msg_bytes.Writeback_Data::0    313698456                      
system.ruby.network.routers05.msg_bytes.Writeback_Data::1        90504                      
system.ruby.network.routers05.msg_bytes.Writeback_Control::0         6080                      
system.ruby.network.routers06.percent_links_utilized     0.050656                      
system.ruby.network.routers06.msg_count.Control::0      1654071                      
system.ruby.network.routers06.msg_count.Request_Control::2       325107                      
system.ruby.network.routers06.msg_count.Response_Data::1      1899266                      
system.ruby.network.routers06.msg_count.Response_Control::1      1303545                      
system.ruby.network.routers06.msg_count.Response_Control::2      1302123                      
system.ruby.network.routers06.msg_count.Writeback_Data::0        21791                      
system.ruby.network.routers06.msg_count.Writeback_Data::1           10                      
system.ruby.network.routers06.msg_count.Writeback_Control::0      1079250                      
system.ruby.network.routers06.msg_bytes.Control::0     13232568                      
system.ruby.network.routers06.msg_bytes.Request_Control::2      2600856                      
system.ruby.network.routers06.msg_bytes.Response_Data::1    136747152                      
system.ruby.network.routers06.msg_bytes.Response_Control::1     10428360                      
system.ruby.network.routers06.msg_bytes.Response_Control::2     10416984                      
system.ruby.network.routers06.msg_bytes.Writeback_Data::0      1568952                      
system.ruby.network.routers06.msg_bytes.Writeback_Data::1          720                      
system.ruby.network.routers06.msg_bytes.Writeback_Control::0      8634000                      
system.ruby.network.routers07.percent_links_utilized     0.047073                      
system.ruby.network.routers07.msg_count.Control::0      1657867                      
system.ruby.network.routers07.msg_count.Request_Control::2       240118                      
system.ruby.network.routers07.msg_count.Response_Data::1      1733031                      
system.ruby.network.routers07.msg_count.Response_Control::1      1307271                      
system.ruby.network.routers07.msg_count.Response_Control::2      1247000                      
system.ruby.network.routers07.msg_count.Writeback_Data::0        21952                      
system.ruby.network.routers07.msg_count.Writeback_Data::1           39                      
system.ruby.network.routers07.msg_count.Writeback_Control::0      1082821                      
system.ruby.network.routers07.msg_bytes.Control::0     13262936                      
system.ruby.network.routers07.msg_bytes.Request_Control::2      1920944                      
system.ruby.network.routers07.msg_bytes.Response_Data::1    124778232                      
system.ruby.network.routers07.msg_bytes.Response_Control::1     10458168                      
system.ruby.network.routers07.msg_bytes.Response_Control::2      9976000                      
system.ruby.network.routers07.msg_bytes.Writeback_Data::0      1580544                      
system.ruby.network.routers07.msg_bytes.Writeback_Data::1         2808                      
system.ruby.network.routers07.msg_bytes.Writeback_Control::0      8662568                      
system.ruby.network.routers08.percent_links_utilized     0.052767                      
system.ruby.network.routers08.msg_count.Control::0      1655756                      
system.ruby.network.routers08.msg_count.Request_Control::2       373565                      
system.ruby.network.routers08.msg_count.Response_Data::1      1997891                      
system.ruby.network.routers08.msg_count.Response_Control::1      1305241                      
system.ruby.network.routers08.msg_count.Response_Control::2      1318078                      
system.ruby.network.routers08.msg_count.Writeback_Data::0        21744                      
system.ruby.network.routers08.msg_count.Writeback_Data::1            1                      
system.ruby.network.routers08.msg_count.Writeback_Control::0      1081000                      
system.ruby.network.routers08.msg_bytes.Control::0     13246048                      
system.ruby.network.routers08.msg_bytes.Request_Control::2      2988520                      
system.ruby.network.routers08.msg_bytes.Response_Data::1    143848152                      
system.ruby.network.routers08.msg_bytes.Response_Control::1     10441928                      
system.ruby.network.routers08.msg_bytes.Response_Control::2     10544624                      
system.ruby.network.routers08.msg_bytes.Writeback_Data::0      1565568                      
system.ruby.network.routers08.msg_bytes.Writeback_Data::1           72                      
system.ruby.network.routers08.msg_bytes.Writeback_Control::0      8648000                      
system.ruby.network.routers09.percent_links_utilized     0.045441                      
system.ruby.network.routers09.msg_count.Control::0      1657722                      
system.ruby.network.routers09.msg_count.Request_Control::2       203900                      
system.ruby.network.routers09.msg_count.Response_Data::1      1658123                      
system.ruby.network.routers09.msg_count.Response_Control::1      1306017                      
system.ruby.network.routers09.msg_count.Response_Control::2      1211345                      
system.ruby.network.routers09.msg_count.Writeback_Data::0        21764                      
system.ruby.network.routers09.msg_count.Writeback_Data::1         1198                      
system.ruby.network.routers09.msg_count.Writeback_Control::0      1081750                      
system.ruby.network.routers09.msg_bytes.Control::0     13261776                      
system.ruby.network.routers09.msg_bytes.Request_Control::2      1631200                      
system.ruby.network.routers09.msg_bytes.Response_Data::1    119384856                      
system.ruby.network.routers09.msg_bytes.Response_Control::1     10448136                      
system.ruby.network.routers09.msg_bytes.Response_Control::2      9690760                      
system.ruby.network.routers09.msg_bytes.Writeback_Data::0      1567008                      
system.ruby.network.routers09.msg_bytes.Writeback_Data::1        86256                      
system.ruby.network.routers09.msg_bytes.Writeback_Control::0      8654000                      
system.ruby.network.routers10.percent_links_utilized     0.541686                      
system.ruby.network.routers10.msg_count.Control::0     15244744                      
system.ruby.network.routers10.msg_count.Request_Control::2       537841                      
system.ruby.network.routers10.msg_count.Response_Data::1     18054872                      
system.ruby.network.routers10.msg_count.Response_Control::1     13389914                      
system.ruby.network.routers10.msg_count.Response_Control::2      9441068                      
system.ruby.network.routers10.msg_count.Writeback_Data::0      4444174                      
system.ruby.network.routers10.msg_count.Writeback_Data::1         2505                      
system.ruby.network.routers10.msg_count.Writeback_Control::0      4325581                      
system.ruby.network.routers10.msg_bytes.Control::0    121957952                      
system.ruby.network.routers10.msg_bytes.Request_Control::2      4302728                      
system.ruby.network.routers10.msg_bytes.Response_Data::1   1299950784                      
system.ruby.network.routers10.msg_bytes.Response_Control::1    107119312                      
system.ruby.network.routers10.msg_bytes.Response_Control::2     75528544                      
system.ruby.network.routers10.msg_bytes.Writeback_Data::0    319980528                      
system.ruby.network.routers10.msg_bytes.Writeback_Data::1       180360                      
system.ruby.network.routers10.msg_bytes.Writeback_Control::0     34604648                      
system.ruby.network.routers11.percent_links_utilized     0.169736                      
system.ruby.network.routers11.msg_count.Control::0      4256791                      
system.ruby.network.routers11.msg_count.Response_Data::1      7649469                      
system.ruby.network.routers11.msg_count.Response_Control::1      3810184                      
system.ruby.network.routers11.msg_bytes.Control::0     34054328                      
system.ruby.network.routers11.msg_bytes.Response_Data::1    550761768                      
system.ruby.network.routers11.msg_bytes.Response_Control::1     30481472                      
system.ruby.network.routers12.percent_links_utilized     0.093534                      
system.ruby.network.routers12.msg_count.Control::0     15244744                      
system.ruby.network.routers12.msg_count.Request_Control::2      1145297                      
system.ruby.network.routers12.msg_count.Response_Data::1     18970143                      
system.ruby.network.routers12.msg_count.Response_Control::1     13389995                      
system.ruby.network.routers12.msg_count.Response_Control::2      9441068                      
system.ruby.network.routers12.msg_count.Writeback_Data::0      4444174                      
system.ruby.network.routers12.msg_count.Writeback_Data::1         2505                      
system.ruby.network.routers12.msg_count.Writeback_Control::0      4325581                      
system.ruby.network.routers12.msg_bytes.Control::0    121957952                      
system.ruby.network.routers12.msg_bytes.Request_Control::2      9162376                      
system.ruby.network.routers12.msg_bytes.Response_Data::1   1365850296                      
system.ruby.network.routers12.msg_bytes.Response_Control::1    107119960                      
system.ruby.network.routers12.msg_bytes.Response_Control::2     75528544                      
system.ruby.network.routers12.msg_bytes.Writeback_Data::0    319980528                      
system.ruby.network.routers12.msg_bytes.Writeback_Data::1       180360                      
system.ruby.network.routers12.msg_bytes.Writeback_Control::0     34604648                      
system.ruby.network.msg_count.Control        45734232                      
system.ruby.network.msg_count.Request_Control      2828435                      
system.ruby.network.msg_count.Response_Data     56327947                      
system.ruby.network.msg_count.Response_Control     68493189                      
system.ruby.network.msg_count.Writeback_Data     13340037                      
system.ruby.network.msg_count.Writeback_Control     12976743                      
system.ruby.network.msg_byte.Control        365873856                      
system.ruby.network.msg_byte.Request_Control     22627480                      
system.ruby.network.msg_byte.Response_Data   4055612184                      
system.ruby.network.msg_byte.Response_Control    547945512                      
system.ruby.network.msg_byte.Writeback_Data    960482664                      
system.ruby.network.msg_byte.Writeback_Control    103813944                      
system.ruby.network.routers00.throttle0.link_utilization            0                      
system.ruby.network.routers00.throttle1.link_utilization            0                      
system.ruby.network.routers01.throttle0.link_utilization            0                      
system.ruby.network.routers01.throttle1.link_utilization            0                      
system.ruby.network.routers02.throttle0.link_utilization            0                      
system.ruby.network.routers02.throttle1.link_utilization            0                      
system.ruby.network.routers03.throttle0.link_utilization            0                      
system.ruby.network.routers03.throttle1.link_utilization            0                      
system.ruby.network.routers04.throttle0.link_utilization            0                      
system.ruby.network.routers04.throttle1.link_utilization            0                      
system.ruby.network.routers05.throttle0.link_utilization     0.192541                      
system.ruby.network.routers05.throttle0.msg_count.Request_Control::2         2607                      
system.ruby.network.routers05.throttle0.msg_count.Response_Data::1      4362490                      
system.ruby.network.routers05.throttle0.msg_count.Response_Control::1      4357800                      
system.ruby.network.routers05.throttle0.msg_bytes.Request_Control::2        20856                      
system.ruby.network.routers05.throttle0.msg_bytes.Response_Data::1    314099280                      
system.ruby.network.routers05.throttle0.msg_bytes.Response_Control::1     34862400                      
system.ruby.network.routers05.throttle1.link_utilization     0.211743                      
system.ruby.network.routers05.throttle1.msg_count.Control::0      4362537                      
system.ruby.network.routers05.throttle1.msg_count.Response_Data::1         2662                      
system.ruby.network.routers05.throttle1.msg_count.Response_Control::1           18                      
system.ruby.network.routers05.throttle1.msg_count.Response_Control::2      4362522                      
system.ruby.network.routers05.throttle1.msg_count.Writeback_Data::0      4356923                      
system.ruby.network.routers05.throttle1.msg_count.Writeback_Data::1         1257                      
system.ruby.network.routers05.throttle1.msg_count.Writeback_Control::0          760                      
system.ruby.network.routers05.throttle1.msg_bytes.Control::0     34900296                      
system.ruby.network.routers05.throttle1.msg_bytes.Response_Data::1       191664                      
system.ruby.network.routers05.throttle1.msg_bytes.Response_Control::1          144                      
system.ruby.network.routers05.throttle1.msg_bytes.Response_Control::2     34900176                      
system.ruby.network.routers05.throttle1.msg_bytes.Writeback_Data::0    313698456                      
system.ruby.network.routers05.throttle1.msg_bytes.Writeback_Data::1        90504                      
system.ruby.network.routers05.throttle1.msg_bytes.Writeback_Control::0         6080                      
system.ruby.network.routers06.throttle0.link_utilization     0.072001                      
system.ruby.network.routers06.throttle0.msg_count.Request_Control::2       325107                      
system.ruby.network.routers06.throttle0.msg_count.Response_Data::1      1654068                      
system.ruby.network.routers06.throttle0.msg_count.Response_Control::1      1101049                      
system.ruby.network.routers06.throttle0.msg_bytes.Request_Control::2      2600856                      
system.ruby.network.routers06.throttle0.msg_bytes.Response_Data::1    119092896                      
system.ruby.network.routers06.throttle0.msg_bytes.Response_Control::1      8808392                      
system.ruby.network.routers06.throttle1.link_utilization     0.029312                      
system.ruby.network.routers06.throttle1.msg_count.Control::0      1654071                      
system.ruby.network.routers06.throttle1.msg_count.Response_Data::1       245198                      
system.ruby.network.routers06.throttle1.msg_count.Response_Control::1       202496                      
system.ruby.network.routers06.throttle1.msg_count.Response_Control::2      1302123                      
system.ruby.network.routers06.throttle1.msg_count.Writeback_Data::0        21791                      
system.ruby.network.routers06.throttle1.msg_count.Writeback_Data::1           10                      
system.ruby.network.routers06.throttle1.msg_count.Writeback_Control::0      1079250                      
system.ruby.network.routers06.throttle1.msg_bytes.Control::0     13232568                      
system.ruby.network.routers06.throttle1.msg_bytes.Response_Data::1     17654256                      
system.ruby.network.routers06.throttle1.msg_bytes.Response_Control::1      1619968                      
system.ruby.network.routers06.throttle1.msg_bytes.Response_Control::2     10416984                      
system.ruby.network.routers06.throttle1.msg_bytes.Writeback_Data::0      1568952                      
system.ruby.network.routers06.throttle1.msg_bytes.Writeback_Data::1          720                      
system.ruby.network.routers06.throttle1.msg_bytes.Writeback_Control::0      8634000                      
system.ruby.network.routers07.throttle0.link_utilization     0.071793                      
system.ruby.network.routers07.throttle0.msg_count.Request_Control::2       240118                      
system.ruby.network.routers07.throttle0.msg_count.Response_Data::1      1657866                      
system.ruby.network.routers07.throttle0.msg_count.Response_Control::1      1104776                      
system.ruby.network.routers07.throttle0.msg_bytes.Request_Control::2      1920944                      
system.ruby.network.routers07.throttle0.msg_bytes.Response_Data::1    119366352                      
system.ruby.network.routers07.throttle0.msg_bytes.Response_Control::1      8838208                      
system.ruby.network.routers07.throttle1.link_utilization     0.022354                      
system.ruby.network.routers07.throttle1.msg_count.Control::0      1657867                      
system.ruby.network.routers07.throttle1.msg_count.Response_Data::1        75165                      
system.ruby.network.routers07.throttle1.msg_count.Response_Control::1       202495                      
system.ruby.network.routers07.throttle1.msg_count.Response_Control::2      1247000                      
system.ruby.network.routers07.throttle1.msg_count.Writeback_Data::0        21952                      
system.ruby.network.routers07.throttle1.msg_count.Writeback_Data::1           39                      
system.ruby.network.routers07.throttle1.msg_count.Writeback_Control::0      1082821                      
system.ruby.network.routers07.throttle1.msg_bytes.Control::0     13262936                      
system.ruby.network.routers07.throttle1.msg_bytes.Response_Data::1      5411880                      
system.ruby.network.routers07.throttle1.msg_bytes.Response_Control::1      1619960                      
system.ruby.network.routers07.throttle1.msg_bytes.Response_Control::2      9976000                      
system.ruby.network.routers07.throttle1.msg_bytes.Writeback_Data::0      1580544                      
system.ruby.network.routers07.throttle1.msg_bytes.Writeback_Data::1         2808                      
system.ruby.network.routers07.throttle1.msg_bytes.Writeback_Control::0      8662568                      
system.ruby.network.routers08.throttle0.link_utilization     0.072289                      
system.ruby.network.routers08.throttle0.msg_count.Request_Control::2       373565                      
system.ruby.network.routers08.throttle0.msg_count.Response_Data::1      1655755                      
system.ruby.network.routers08.throttle0.msg_count.Response_Control::1      1102747                      
system.ruby.network.routers08.throttle0.msg_bytes.Request_Control::2      2988520                      
system.ruby.network.routers08.throttle0.msg_bytes.Response_Data::1    119214360                      
system.ruby.network.routers08.throttle0.msg_bytes.Response_Control::1      8821976                      
system.ruby.network.routers08.throttle1.link_utilization     0.033246                      
system.ruby.network.routers08.throttle1.msg_count.Control::0      1655756                      
system.ruby.network.routers08.throttle1.msg_count.Response_Data::1       342136                      
system.ruby.network.routers08.throttle1.msg_count.Response_Control::1       202494                      
system.ruby.network.routers08.throttle1.msg_count.Response_Control::2      1318078                      
system.ruby.network.routers08.throttle1.msg_count.Writeback_Data::0        21744                      
system.ruby.network.routers08.throttle1.msg_count.Writeback_Data::1            1                      
system.ruby.network.routers08.throttle1.msg_count.Writeback_Control::0      1081000                      
system.ruby.network.routers08.throttle1.msg_bytes.Control::0     13246048                      
system.ruby.network.routers08.throttle1.msg_bytes.Response_Data::1     24633792                      
system.ruby.network.routers08.throttle1.msg_bytes.Response_Control::1      1619952                      
system.ruby.network.routers08.throttle1.msg_bytes.Response_Control::2     10544624                      
system.ruby.network.routers08.throttle1.msg_bytes.Writeback_Data::0      1565568                      
system.ruby.network.routers08.throttle1.msg_bytes.Writeback_Data::1           72                      
system.ruby.network.routers08.throttle1.msg_bytes.Writeback_Control::0      8648000                      
system.ruby.network.routers09.throttle0.link_utilization     0.071622                      
system.ruby.network.routers09.throttle0.msg_count.Request_Control::2       203900                      
system.ruby.network.routers09.throttle0.msg_count.Response_Data::1      1657721                      
system.ruby.network.routers09.throttle0.msg_count.Response_Control::1      1103517                      
system.ruby.network.routers09.throttle0.msg_bytes.Request_Control::2      1631200                      
system.ruby.network.routers09.throttle0.msg_bytes.Response_Data::1    119355912                      
system.ruby.network.routers09.throttle0.msg_bytes.Response_Control::1      8828136                      
system.ruby.network.routers09.throttle1.link_utilization     0.019260                      
system.ruby.network.routers09.throttle1.msg_count.Control::0      1657722                      
system.ruby.network.routers09.throttle1.msg_count.Response_Data::1          402                      
system.ruby.network.routers09.throttle1.msg_count.Response_Control::1       202500                      
system.ruby.network.routers09.throttle1.msg_count.Response_Control::2      1211345                      
system.ruby.network.routers09.throttle1.msg_count.Writeback_Data::0        21764                      
system.ruby.network.routers09.throttle1.msg_count.Writeback_Data::1         1198                      
system.ruby.network.routers09.throttle1.msg_count.Writeback_Control::0      1081750                      
system.ruby.network.routers09.throttle1.msg_bytes.Control::0     13261776                      
system.ruby.network.routers09.throttle1.msg_bytes.Response_Data::1        28944                      
system.ruby.network.routers09.throttle1.msg_bytes.Response_Control::1      1620000                      
system.ruby.network.routers09.throttle1.msg_bytes.Response_Control::2      9690760                      
system.ruby.network.routers09.throttle1.msg_bytes.Writeback_Data::0      1567008                      
system.ruby.network.routers09.throttle1.msg_bytes.Writeback_Data::1        86256                      
system.ruby.network.routers09.throttle1.msg_bytes.Writeback_Control::0      8654000                      
system.ruby.network.routers10.throttle0.link_utilization     0.487687                      
system.ruby.network.routers10.throttle0.msg_count.Control::0     10987953                      
system.ruby.network.routers10.throttle0.msg_count.Response_Data::1      4589565                      
system.ruby.network.routers10.throttle0.msg_count.Response_Control::1      4411353                      
system.ruby.network.routers10.throttle0.msg_count.Response_Control::2      9441068                      
system.ruby.network.routers10.throttle0.msg_count.Writeback_Data::0      4444174                      
system.ruby.network.routers10.throttle0.msg_count.Writeback_Data::1         2505                      
system.ruby.network.routers10.throttle0.msg_count.Writeback_Control::0      4325581                      
system.ruby.network.routers10.throttle0.msg_bytes.Control::0     87903624                      
system.ruby.network.routers10.throttle0.msg_bytes.Response_Data::1    330448680                      
system.ruby.network.routers10.throttle0.msg_bytes.Response_Control::1     35290824                      
system.ruby.network.routers10.throttle0.msg_bytes.Response_Control::2     75528544                      
system.ruby.network.routers10.throttle0.msg_bytes.Writeback_Data::0    319980528                      
system.ruby.network.routers10.throttle0.msg_bytes.Writeback_Data::1       180360                      
system.ruby.network.routers10.throttle0.msg_bytes.Writeback_Control::0     34604648                      
system.ruby.network.routers10.throttle1.link_utilization     0.595686                      
system.ruby.network.routers10.throttle1.msg_count.Control::0      4256791                      
system.ruby.network.routers10.throttle1.msg_count.Request_Control::2       537841                      
system.ruby.network.routers10.throttle1.msg_count.Response_Data::1     13465307                      
system.ruby.network.routers10.throttle1.msg_count.Response_Control::1      8978561                      
system.ruby.network.routers10.throttle1.msg_bytes.Control::0     34054328                      
system.ruby.network.routers10.throttle1.msg_bytes.Request_Control::2      4302728                      
system.ruby.network.routers10.throttle1.msg_bytes.Response_Data::1    969502104                      
system.ruby.network.routers10.throttle1.msg_bytes.Response_Control::1     71828488                      
system.ruby.network.routers11.throttle0.link_utilization     0.154480                      
system.ruby.network.routers11.throttle0.msg_count.Control::0      4256791                      
system.ruby.network.routers11.throttle0.msg_count.Response_Data::1      3392678                      
system.ruby.network.routers11.throttle0.msg_count.Response_Control::1       208753                      
system.ruby.network.routers11.throttle0.msg_bytes.Control::0     34054328                      
system.ruby.network.routers11.throttle0.msg_bytes.Response_Data::1    244272816                      
system.ruby.network.routers11.throttle0.msg_bytes.Response_Control::1      1670024                      
system.ruby.network.routers11.throttle1.link_utilization     0.184992                      
system.ruby.network.routers11.throttle1.msg_count.Response_Data::1      4256791                      
[...]
system.ruby.L1Cache_Controller.NP.Store  |     4345631     99.54%     99.54% |        5072      0.12%     99.65% |        5071      0.12%     99.77% |        5071      0.12%     99.88% |        5071      0.12%    100.00%
system.ruby.L1Cache_Controller.NP.Store::total      4365916                      
system.ruby.L1Cache_Controller.NP.Inv    |           0      0.00%      0.00% |      202473     25.00%     25.00% |      202472     25.00%     50.00% |      202472     25.00%     75.00% |      202473     25.00%    100.00%
system.ruby.L1Cache_Controller.NP.Inv::total       809890                      
system.ruby.L1Cache_Controller.I.Load    |           2    100.00%    100.00% |           0      0.00%    100.00% |           0      0.00%    100.00% |           0      0.00%    100.00% |           0      0.00%    100.00%
system.ruby.L1Cache_Controller.I.Load::total            2                      
system.ruby.L1Cache_Controller.I.L1_Replacement |           0      0.00%      0.00% |           2     33.33%     33.33% |           2     33.33%     66.67% |           2     33.33%    100.00% |           0      0.00%    100.00%
system.ruby.L1Cache_Controller.I.L1_Replacement::total            6                      
system.ruby.L1Cache_Controller.S.Load    |           3     50.00%     50.00% |           1     16.67%     66.67% |           1     16.67%     83.33% |           0      0.00%     83.33% |           1     16.67%    100.00%
system.ruby.L1Cache_Controller.S.Load::total            6                      
system.ruby.L1Cache_Controller.S.Store   |          47     88.68%     88.68% |           3      5.66%     94.34% |           1      1.89%     96.23% |           1      1.89%     98.11% |           1      1.89%    100.00%
system.ruby.L1Cache_Controller.S.Store::total           53                      
system.ruby.L1Cache_Controller.S.L0_Invalidate_Own |           2      0.00%      0.00% |      430650     23.02%     23.02% |      512097     27.37%     50.39% |      379100     20.26%     70.66% |      548902     29.34%    100.00%
system.ruby.L1Cache_Controller.S.L0_Invalidate_Own::total      1870751                      
system.ruby.L1Cache_Controller.S.L0_Invalidate_Else |           1      1.69%      1.69% |          14     23.73%     25.42% |          14     23.73%     49.15% |          12     20.34%     69.49% |          18     30.51%    100.00%
system.ruby.L1Cache_Controller.S.L0_Invalidate_Else::total           59                      
system.ruby.L1Cache_Controller.SS.Load   |          10      0.15%      0.15% |        4326     66.58%     66.74% |         718     11.05%     77.79% |        1250     19.24%     97.03% |         193      2.97%    100.00%
system.ruby.L1Cache_Controller.SS.Load::total         6497                      
system.ruby.L1Cache_Controller.SS.Inv    |           9      8.91%      8.91% |          23     22.77%     31.68% |          23     22.77%     54.46% |          22     21.78%     76.24% |          24     23.76%    100.00%
system.ruby.L1Cache_Controller.SS.Inv::total          101                      
system.ruby.L1Cache_Controller.SS.L1_Replacement |          37      0.00%      0.00% |      548911     25.00%     25.00% |      548948     25.00%     50.00% |      548905     25.00%     75.00% |      548902     25.00%    100.00%
system.ruby.L1Cache_Controller.SS.L1_Replacement::total      2195703                      
system.ruby.L1Cache_Controller.E.WriteBack |        1105      0.03%      0.03% |     1090586     24.74%     24.76% |     1083331     24.57%     49.33% |     1150690     26.10%     75.43% |     1083190     24.57%    100.00%
system.ruby.L1Cache_Controller.E.WriteBack::total      4408902                      
system.ruby.L1Cache_Controller.E.L0_Invalidate_Own |       15069     18.32%     18.32% |       16762     20.38%     38.70% |       16949     20.61%     59.31% |       16747     20.36%     79.68% |       16714     20.32%    100.00%
system.ruby.L1Cache_Controller.E.L0_Invalidate_Own::total        82241                      
system.ruby.L1Cache_Controller.E.L0_Invalidate_Else |          14      0.01%      0.01% |      111526     44.50%     44.50% |       37320     14.89%     59.39% |      101581     40.53%     99.92% |         201      0.08%    100.00%
system.ruby.L1Cache_Controller.E.L0_Invalidate_Else::total       250642                      
system.ruby.L1Cache_Controller.EE.Load   |           0      0.00%      0.00% |          42     47.73%     47.73% |          21     23.86%     71.59% |          20     22.73%     94.32% |           5      5.68%    100.00%
system.ruby.L1Cache_Controller.EE.Load::total           88                      
system.ruby.L1Cache_Controller.EE.Inv    |           9     75.00%     75.00% |           0      0.00%     75.00% |           0      0.00%     75.00% |           0      0.00%     75.00% |           3     25.00%    100.00%
system.ruby.L1Cache_Controller.EE.Inv::total           12                      
system.ruby.L1Cache_Controller.EE.L1_Replacement |       11890     15.36%     15.36% |       16322     21.09%     36.44% |       16531     21.36%     57.80% |       16350     21.12%     78.92% |       16317     21.08%    100.00%
system.ruby.L1Cache_Controller.EE.L1_Replacement::total        77410                      
system.ruby.L1Cache_Controller.EE.Fwd_GETS |           5      0.00%      0.00% |      111483     44.50%     44.50% |       37299     14.89%     59.39% |      101556     40.54%     99.92% |         193      0.08%    100.00%
system.ruby.L1Cache_Controller.EE.Fwd_GETS::total       250536                      
system.ruby.L1Cache_Controller.M.WriteBack |     4342019     87.66%     87.66% |      155006      3.13%     90.79% |      151375      3.06%     93.85% |      153393      3.10%     96.94% |      151439      3.06%    100.00%
system.ruby.L1Cache_Controller.M.WriteBack::total      4953232                      
system.ruby.L1Cache_Controller.M.L0_Invalidate_Own |        3211     88.53%     88.53% |         114      3.14%     91.67% |         114      3.14%     94.82% |          82      2.26%     97.08% |         106      2.92%    100.00%
system.ruby.L1Cache_Controller.M.L0_Invalidate_Own::total         3627                      
system.ruby.L1Cache_Controller.M.L0_Invalidate_Else |         495     95.01%     95.01% |           8      1.54%     96.55% |           7      1.34%     97.89% |           7      1.34%     99.23% |           4      0.77%    100.00%
system.ruby.L1Cache_Controller.M.L0_Invalidate_Else::total          521                      
system.ruby.L1Cache_Controller.MM.Load   |         152      0.03%      0.03% |      150105     25.37%     25.39% |      146471     24.75%     50.15% |      148456     25.09%     75.24% |      146525     24.76%    100.00%
system.ruby.L1Cache_Controller.MM.Load::total       591709                      
system.ruby.L1Cache_Controller.MM.Store  |          31    100.00%    100.00% |           0      0.00%    100.00% |           0      0.00%    100.00% |           0      0.00%    100.00% |           0      0.00%    100.00%
system.ruby.L1Cache_Controller.MM.Store::total           31                      
system.ruby.L1Cache_Controller.MM.Inv    |        1257     50.18%     50.18% |          10      0.40%     50.58% |          39      1.56%     52.14% |           1      0.04%     52.18% |        1198     47.82%    100.00%
system.ruby.L1Cache_Controller.MM.Inv::total         2505                      
system.ruby.L1Cache_Controller.MM.L1_Replacement |     4345793     50.00%     50.00% |     1084719     12.48%     62.47% |     1088242     12.52%     74.99% |     1086394     12.50%     87.49% |     1087197     12.51%    100.00%
system.ruby.L1Cache_Controller.MM.L1_Replacement::total      8692345                      
system.ruby.L1Cache_Controller.MM.Fwd_GETX |           2     13.33%     13.33% |           4     26.67%     40.00% |           3     20.00%     60.00% |           4     26.67%     86.67% |           2     13.33%    100.00%
system.ruby.L1Cache_Controller.MM.Fwd_GETX::total           15                      
system.ruby.L1Cache_Controller.MM.Fwd_GETS |        1325      1.61%      1.61% |       11114     13.51%     15.13% |         282      0.34%     15.47% |       69510     84.52%     99.99% |           7      0.01%    100.00%
system.ruby.L1Cache_Controller.MM.Fwd_GETS::total        82238                      
system.ruby.L1Cache_Controller.IS.Data_Exclusive |       16804      0.35%      0.35% |     1218835     25.70%     26.06% |     1137582     23.99%     50.04% |     1269001     26.76%     76.80% |     1100103     23.20%    100.00%
system.ruby.L1Cache_Controller.IS.Data_Exclusive::total      4742325                      
system.ruby.L1Cache_Controller.IS.DataS_fromL1 |          40      0.01%      0.01% |       78213     23.50%     23.52% |      104346     31.36%     54.87% |       44005     13.22%     68.10% |      106170     31.90%    100.00%
system.ruby.L1Cache_Controller.IS.DataS_fromL1::total       332774                      
system.ruby.L1Cache_Controller.IS.Data_all_Acks |          15      0.00%      0.00% |      351948     22.75%     22.75% |      410867     26.56%     49.31% |      337678     21.83%     71.14% |      446377     28.86%    100.00%
system.ruby.L1Cache_Controller.IS.Data_all_Acks::total      1546885                      
system.ruby.L1Cache_Controller.IM.Data   |           0      0.00%      0.00% |           1     25.00%     25.00% |           1     25.00%     50.00% |           1     25.00%     75.00% |           1     25.00%    100.00%
system.ruby.L1Cache_Controller.IM.Data::total            4                      
system.ruby.L1Cache_Controller.IM.Data_all_Acks |     4345631     99.54%     99.54% |        5071      0.12%     99.65% |        5070      0.12%     99.77% |        5070      0.12%     99.88% |        5070      0.12%    100.00%
system.ruby.L1Cache_Controller.IM.Data_all_Acks::total      4365912                      
system.ruby.L1Cache_Controller.SM.Ack    |          70     90.91%     90.91% |           4      5.19%     96.10% |           1      1.30%     97.40% |           1      1.30%     98.70% |           1      1.30%    100.00%
system.ruby.L1Cache_Controller.SM.Ack::total           77                      
system.ruby.L1Cache_Controller.SM.Ack_all |          47     82.46%     82.46% |           4      7.02%     89.47% |           2      3.51%     92.98% |           2      3.51%     96.49% |           2      3.51%    100.00%
system.ruby.L1Cache_Controller.SM.Ack_all::total           57                      
system.ruby.L1Cache_Controller.M_I.WB_Ack |     4357683     49.69%     49.69% |     1101041     12.55%     62.24% |     1104773     12.60%     74.84% |     1102744     12.57%     87.42% |     1103514     12.58%    100.00%
system.ruby.L1Cache_Controller.M_I.WB_Ack::total      8769755                      
system.ruby.L1Cache_Controller.S_IL0.L0_Invalidate_Own |           2      0.00%      0.00% |      430650     23.02%     23.02% |      512097     27.37%     50.39% |      379100     20.26%     70.66% |      548902     29.34%    100.00%
system.ruby.L1Cache_Controller.S_IL0.L0_Invalidate_Own::total      1870751                      
system.ruby.L1Cache_Controller.S_IL0.L0_Invalidate_Else |           1      1.69%      1.69% |          14     23.73%     25.42% |          14     23.73%     49.15% |          12     20.34%     69.49% |          18     30.51%    100.00%
system.ruby.L1Cache_Controller.S_IL0.L0_Invalidate_Else::total           59                      
system.ruby.L1Cache_Controller.S_IL0.L0_Ack |           3      0.00%      0.00% |      430664     23.02%     23.02% |      512111     27.37%     50.39% |      379112     20.26%     70.66% |      548920     29.34%    100.00%
system.ruby.L1Cache_Controller.S_IL0.L0_Ack::total      1870810                      
system.ruby.L1Cache_Controller.E_IL0.WriteBack |           0      0.00%      0.00% |           1     16.67%     16.67% |           0      0.00%     16.67% |           5     83.33%    100.00% |           0      0.00%    100.00%
system.ruby.L1Cache_Controller.E_IL0.WriteBack::total            6                      
system.ruby.L1Cache_Controller.E_IL0.L0_DataAck |        3179     65.80%     65.80% |         440      9.11%     74.91% |         418      8.65%     83.56% |         397      8.22%     91.78% |         397      8.22%    100.00%
system.ruby.L1Cache_Controller.E_IL0.L0_DataAck::total         4831                      
system.ruby.L1Cache_Controller.E_IL0.L0_Invalidate_Own |       15069     18.32%     18.32% |       16762     20.38%     38.70% |       16949     20.61%     59.31% |       16747     20.36%     79.68% |       16714     20.32%    100.00%
system.ruby.L1Cache_Controller.E_IL0.L0_Invalidate_Own::total        82241                      
system.ruby.L1Cache_Controller.E_IL0.L0_Invalidate_Else |          14      0.01%      0.01% |      111526     44.50%     44.50% |       37320     14.89%     59.39% |      101581     40.53%     99.92% |         201      0.08%    100.00%
system.ruby.L1Cache_Controller.E_IL0.L0_Invalidate_Else::total       250642                      
system.ruby.L1Cache_Controller.E_IL0.L0_Ack |       11904      3.63%      3.63% |      127847     38.97%     42.60% |       53851     16.42%     59.02% |      117926     35.95%     94.96% |       16518      5.04%    100.00%
system.ruby.L1Cache_Controller.E_IL0.L0_Ack::total       328046                      
system.ruby.L1Cache_Controller.M_IL0.L0_DataAck |        3676     97.48%     97.48% |          34      0.90%     98.38% |          20      0.53%     98.91% |          35      0.93%     99.84% |           6      0.16%    100.00%
system.ruby.L1Cache_Controller.M_IL0.L0_DataAck::total         3771                      
system.ruby.L1Cache_Controller.M_IL0.L0_Invalidate_Own |        3211     88.53%     88.53% |         114      3.14%     91.67% |         114      3.14%     94.82% |          82      2.26%     97.08% |         106      2.92%    100.00%
system.ruby.L1Cache_Controller.M_IL0.L0_Invalidate_Own::total         3627                      
system.ruby.L1Cache_Controller.M_IL0.L0_Invalidate_Else |         495     95.01%     95.01% |           8      1.54%     96.55% |           7      1.34%     97.89% |           7      1.34%     99.23% |           4      0.77%    100.00%
system.ruby.L1Cache_Controller.M_IL0.L0_Invalidate_Else::total          521                      
system.ruby.L1Cache_Controller.M_IL0.L0_Ack |          30      7.96%      7.96% |          88     23.34%     31.30% |         101     26.79%     58.09% |          54     14.32%     72.41% |         104     27.59%    100.00%
system.ruby.L1Cache_Controller.M_IL0.L0_Ack::total          377                      
system.ruby.L1Cache_Controller.MM_IL0.Fwd_GETS |           0      0.00%      0.00% |           1     16.67%     16.67% |           0      0.00%     16.67% |           5     83.33%    100.00% |           0      0.00%    100.00%
system.ruby.L1Cache_Controller.MM_IL0.Fwd_GETS::total            6                      
system.ruby.L1Cache_Controller.MM_IL0.L0_Ack |           0      0.00%      0.00% |           1     16.67%     16.67% |           0      0.00%     16.67% |           5     83.33%    100.00% |           0      0.00%    100.00%
system.ruby.L1Cache_Controller.MM_IL0.L0_Ack::total            6                      
system.ruby.L2Cache_Controller.L1_GETS        7132704      0.00%      0.00%
system.ruby.L2Cache_Controller.L1_GETX        4365921      0.00%      0.00%
system.ruby.L2Cache_Controller.L1_UPGRADE           53      0.00%      0.00%
system.ruby.L2Cache_Controller.L1_PUTX        8769755      0.00%      0.00%
system.ruby.L2Cache_Controller.L2_Replacement      3391380      0.00%      0.00%
system.ruby.L2Cache_Controller.L2_Replacement_clean       210051      0.00%      0.00%
system.ruby.L2Cache_Controller.Mem_Data       4256791      0.00%      0.00%
system.ruby.L2Cache_Controller.Mem_Ack        3601431      0.00%      0.00%
system.ruby.L2Cache_Controller.WB_Data         253182      0.00%      0.00%
system.ruby.L2Cache_Controller.WB_Data_clean        82097      0.00%      0.00%
system.ruby.L2Cache_Controller.Ack             607432      0.00%      0.00%
system.ruby.L2Cache_Controller.Ack_all         202490      0.00%      0.00%
system.ruby.L2Cache_Controller.Unblock         332774      0.00%      0.00%
system.ruby.L2Cache_Controller.Exclusive_Unblock      9108294      0.00%      0.00%
system.ruby.L2Cache_Controller.NP.L1_GETS       327309      0.00%      0.00%
system.ruby.L2Cache_Controller.NP.L1_GETX      3929482      0.00%      0.00%
system.ruby.L2Cache_Controller.SS.L1_GETS       766588      0.00%      0.00%
system.ruby.L2Cache_Controller.SS.L1_GETX            4      0.00%      0.00%
system.ruby.L2Cache_Controller.SS.L1_UPGRADE           53      0.00%      0.00%
system.ruby.L2Cache_Controller.SS.L2_Replacement        31636      0.00%      0.00%
system.ruby.L2Cache_Controller.SS.L2_Replacement_clean       170842      0.00%      0.00%
system.ruby.L2Cache_Controller.M.L1_GETS      4612831      0.00%      0.00%
system.ruby.L2Cache_Controller.M.L1_GETX       436415      0.00%      0.00%
system.ruby.L2Cache_Controller.M.L2_Replacement      3359741      0.00%      0.00%
system.ruby.L2Cache_Controller.M.L2_Replacement_clean        36695      0.00%      0.00%
system.ruby.L2Cache_Controller.MT.L1_GETS       332774      0.00%      0.00%
system.ruby.L2Cache_Controller.MT.L1_GETX           15      0.00%      0.00%
system.ruby.L2Cache_Controller.MT.L1_PUTX      8769755      0.00%      0.00%
system.ruby.L2Cache_Controller.MT.L2_Replacement            3      0.00%      0.00%
system.ruby.L2Cache_Controller.MT.L2_Replacement_clean         2514      0.00%      0.00%
system.ruby.L2Cache_Controller.M_I.Mem_Ack      3601431      0.00%      0.00%
system.ruby.L2Cache_Controller.MT_I.Ack_all            3      0.00%      0.00%
system.ruby.L2Cache_Controller.MCT_I.WB_Data         1298      0.00%      0.00%
system.ruby.L2Cache_Controller.MCT_I.WB_Data_clean         1207      0.00%      0.00%
system.ruby.L2Cache_Controller.MCT_I.Ack_all            9      0.00%      0.00%
system.ruby.L2Cache_Controller.I_I.Ack         512526      0.00%      0.00%
system.ruby.L2Cache_Controller.I_I.Ack_all       170842      0.00%      0.00%
system.ruby.L2Cache_Controller.S_I.Ack          94906      0.00%      0.00%
system.ruby.L2Cache_Controller.S_I.Ack_all        31636      0.00%      0.00%
system.ruby.L2Cache_Controller.ISS.L1_GETS       197815      0.00%      0.00%
system.ruby.L2Cache_Controller.ISS.Mem_Data       129494      0.00%      0.00%
system.ruby.L2Cache_Controller.IS.L1_GETS       384667      0.00%      0.00%
system.ruby.L2Cache_Controller.IS.Mem_Data       197815      0.00%      0.00%
system.ruby.L2Cache_Controller.IM.L1_GETX            1      0.00%      0.00%
system.ruby.L2Cache_Controller.IM.Mem_Data      3929482      0.00%      0.00%
system.ruby.L2Cache_Controller.SS_MB.Exclusive_Unblock           57      0.00%      0.00%
system.ruby.L2Cache_Controller.MT_MB.L1_GETS         3343      0.00%      0.00%
system.ruby.L2Cache_Controller.MT_MB.L1_GETX            4      0.00%      0.00%
system.ruby.L2Cache_Controller.MT_MB.Exclusive_Unblock      9108237      0.00%      0.00%
system.ruby.L2Cache_Controller.MT_IIB.L1_GETS       505651      0.00%      0.00%
system.ruby.L2Cache_Controller.MT_IIB.WB_Data       251607      0.00%      0.00%
system.ruby.L2Cache_Controller.MT_IIB.WB_Data_clean        80820      0.00%      0.00%
system.ruby.L2Cache_Controller.MT_IIB.Unblock          347      0.00%      0.00%
system.ruby.L2Cache_Controller.MT_IB.WB_Data          277      0.00%      0.00%
system.ruby.L2Cache_Controller.MT_IB.WB_Data_clean           70      0.00%      0.00%
system.ruby.L2Cache_Controller.MT_SB.L1_GETS         1726      0.00%      0.00%
system.ruby.L2Cache_Controller.MT_SB.Unblock       332427      0.00%      0.00%

---------- End Simulation Statistics   ----------
