
---------- Begin Simulation Statistics ----------
sim_seconds                                  0.118090                       # Number of seconds simulated
sim_ticks                                118090035500                       # Number of ticks simulated
final_tick                               118090035500                       # Number of ticks from beginning of simulation (restored from checkpoints and never reset)
sim_freq                                 1000000000000                       # Frequency of simulated ticks
host_inst_rate                                  82490                       # Simulator instruction rate (inst/s)
host_op_rate                                   227780                       # Simulator op (including micro ops) rate (op/s)
host_tick_rate                              142471536                       # Simulator tick rate (ticks/s)
host_mem_usage                                 777600                       # Number of bytes of host memory used
host_seconds                                   828.87                       # Real time elapsed on the host
sim_insts                                    68373602                       # Number of instructions simulated
sim_ops                                     188799493                       # Number of ops (including micro ops) simulated
system.voltage_domain.voltage                       1                       # Voltage in Volts
system.clk_domain.clock                          1000                       # Clock period in ticks
system.mem_ctrls.bytes_read::ruby.dir_cntrl0      4076416                       # Number of bytes read from this memory
system.mem_ctrls.bytes_read::total            4076416                       # Number of bytes read from this memory
system.mem_ctrls.num_reads::ruby.dir_cntrl0        63694                       # Number of read requests responded to by this memory
system.mem_ctrls.num_reads::total               63694                       # Number of read requests responded to by this memory
system.mem_ctrls.bw_read::ruby.dir_cntrl0     34519559                       # Total read bandwidth from this memory (bytes/s)
system.mem_ctrls.bw_read::total              34519559                       # Total read bandwidth from this memory (bytes/s)
system.mem_ctrls.bw_total::ruby.dir_cntrl0     34519559                       # Total bandwidth to/from this memory (bytes/s)
system.mem_ctrls.bw_total::total             34519559                       # Total bandwidth to/from this memory (bytes/s)
system.mem_ctrls.readReqs                       63694                       # Number of read requests accepted
system.mem_ctrls.writeReqs                          0                       # Number of write requests accepted
system.mem_ctrls.readBursts                     63694                       # Number of DRAM read bursts, including those serviced by the write queue
system.mem_ctrls.writeBursts                        0                       # Number of DRAM write bursts, including those merged in the write queue
system.mem_ctrls.bytesReadDRAM                4076416                       # Total number of bytes read from DRAM
system.mem_ctrls.bytesReadWrQ                       0                       # Total number of bytes read from write queue
system.mem_ctrls.bytesWritten                       0                       # Total number of bytes written to DRAM
system.mem_ctrls.bytesReadSys                 4076416                       # Total read bytes from the system interface side
system.mem_ctrls.bytesWrittenSys                    0                       # Total written bytes from the system interface side
system.mem_ctrls.servicedByWrQ                      0                       # Number of DRAM read bursts serviced by the write queue
system.mem_ctrls.mergedWrBursts                     0                       # Number of DRAM write bursts merged with an existing one
system.mem_ctrls.neitherReadNorWriteReqs            0                       # Number of requests that are neither read nor write
system.mem_ctrls.perBankRdBursts::0              3939                       # Per bank write bursts
system.mem_ctrls.perBankRdBursts::1              3943                       # Per bank write bursts
system.mem_ctrls.perBankRdBursts::2              3860                       # Per bank write bursts
system.mem_ctrls.perBankRdBursts::3              3713                       # Per bank write bursts
system.mem_ctrls.perBankRdBursts::4              3832                       # Per bank write bursts
system.mem_ctrls.perBankRdBursts::5              3831                       # Per bank write bursts
system.mem_ctrls.perBankRdBursts::6              4128                       # Per bank write bursts
system.mem_ctrls.perBankRdBursts::7              4180                       # Per bank write bursts
system.mem_ctrls.perBankRdBursts::8              4014                       # Per bank write bursts
system.mem_ctrls.perBankRdBursts::9              4106                       # Per bank write bursts
system.mem_ctrls.perBankRdBursts::10             4178                       # Per bank write bursts
system.mem_ctrls.perBankRdBursts::11             4226                       # Per bank write bursts
system.mem_ctrls.perBankRdBursts::12             4056                       # Per bank write bursts
system.mem_ctrls.perBankRdBursts::13             3926                       # Per bank write bursts
system.mem_ctrls.perBankRdBursts::14             3869                       # Per bank write bursts
system.mem_ctrls.perBankRdBursts::15             3893                       # Per bank write bursts
system.mem_ctrls.perBankWrBursts::0                 0                       # Per bank write bursts
system.mem_ctrls.perBankWrBursts::1                 0                       # Per bank write bursts
system.mem_ctrls.perBankWrBursts::2                 0                       # Per bank write bursts
system.mem_ctrls.perBankWrBursts::3                 0                       # Per bank write bursts
system.mem_ctrls.perBankWrBursts::4                 0                       # Per bank write bursts
system.mem_ctrls.perBankWrBursts::5                 0                       # Per bank write bursts
system.mem_ctrls.perBankWrBursts::6                 0                       # Per bank write bursts
system.mem_ctrls.perBankWrBursts::7                 0                       # Per bank write bursts
system.mem_ctrls.perBankWrBursts::8                 0                       # Per bank write bursts
system.mem_ctrls.perBankWrBursts::9                 0                       # Per bank write bursts
system.mem_ctrls.perBankWrBursts::10                0                       # Per bank write bursts
system.mem_ctrls.perBankWrBursts::11                0                       # Per bank write bursts
system.mem_ctrls.perBankWrBursts::12                0                       # Per bank write bursts
system.mem_ctrls.perBankWrBursts::13                0                       # Per bank write bursts
system.mem_ctrls.perBankWrBursts::14                0                       # Per bank write bursts
system.mem_ctrls.perBankWrBursts::15                0                       # Per bank write bursts
system.mem_ctrls.numRdRetry                         0                       # Number of times read queue was full causing retry
system.mem_ctrls.numWrRetry                         0                       # Number of times write queue was full causing retry
system.mem_ctrls.totGap                  118089955000                       # Total gap between requests
system.mem_ctrls.readPktSize::0                     0                       # Read request sizes (log2)
system.mem_ctrls.readPktSize::1                     0                       # Read request sizes (log2)
system.mem_ctrls.readPktSize::2                     0                       # Read request sizes (log2)
system.mem_ctrls.readPktSize::3                     0                       # Read request sizes (log2)
system.mem_ctrls.readPktSize::4                     0                       # Read request sizes (log2)
system.mem_ctrls.readPktSize::5                     0                       # Read request sizes (log2)
system.mem_ctrls.readPktSize::6                 63694                       # Read request sizes (log2)
system.mem_ctrls.writePktSize::0                    0                       # Write request sizes (log2)
system.mem_ctrls.writePktSize::1                    0                       # Write request sizes (log2)
system.mem_ctrls.writePktSize::2                    0                       # Write request sizes (log2)
system.mem_ctrls.writePktSize::3                    0                       # Write request sizes (log2)
system.mem_ctrls.writePktSize::4                    0                       # Write request sizes (log2)
system.mem_ctrls.writePktSize::5                    0                       # Write request sizes (log2)
system.mem_ctrls.writePktSize::6                    0                       # Write request sizes (log2)
system.mem_ctrls.rdQLenPdf::0                   63693                       # What read queue length does an incoming req see
system.mem_ctrls.rdQLenPdf::1                       1                       # What read queue length does an incoming req see
system.mem_ctrls.rdQLenPdf::2                       0                       # What read queue length does an incoming req see
system.mem_ctrls.rdQLenPdf::3                       0                       # What read queue length does an incoming req see
system.mem_ctrls.rdQLenPdf::4                       0                       # What read queue length does an incoming req see
system.mem_ctrls.rdQLenPdf::5                       0                       # What read queue length does an incoming req see
system.mem_ctrls.rdQLenPdf::6                       0                       # What read queue length does an incoming req see
system.mem_ctrls.rdQLenPdf::7                       0                       # What read queue length does an incoming req see
system.mem_ctrls.rdQLenPdf::8                       0                       # What read queue length does an incoming req see
system.mem_ctrls.rdQLenPdf::9                       0                       # What read queue length does an incoming req see
system.mem_ctrls.rdQLenPdf::10                      0                       # What read queue length does an incoming req see
system.mem_ctrls.rdQLenPdf::11                      0                       # What read queue length does an incoming req see
system.mem_ctrls.rdQLenPdf::12                      0                       # What read queue length does an incoming req see
system.mem_ctrls.rdQLenPdf::13                      0                       # What read queue length does an incoming req see
system.mem_ctrls.rdQLenPdf::14                      0                       # What read queue length does an incoming req see
system.mem_ctrls.rdQLenPdf::15                      0                       # What read queue length does an incoming req see
system.mem_ctrls.rdQLenPdf::16                      0                       # What read queue length does an incoming req see
system.mem_ctrls.rdQLenPdf::17                      0                       # What read queue length does an incoming req see
system.mem_ctrls.rdQLenPdf::18                      0                       # What read queue length does an incoming req see
system.mem_ctrls.rdQLenPdf::19                      0                       # What read queue length does an incoming req see
system.mem_ctrls.rdQLenPdf::20                      0                       # What read queue length does an incoming req see
system.mem_ctrls.rdQLenPdf::21                      0                       # What read queue length does an incoming req see
system.mem_ctrls.rdQLenPdf::22                      0                       # What read queue length does an incoming req see
system.mem_ctrls.rdQLenPdf::23                      0                       # What read queue length does an incoming req see
system.mem_ctrls.rdQLenPdf::24                      0                       # What read queue length does an incoming req see
system.mem_ctrls.rdQLenPdf::25                      0                       # What read queue length does an incoming req see
system.mem_ctrls.rdQLenPdf::26                      0                       # What read queue length does an incoming req see
system.mem_ctrls.rdQLenPdf::27                      0                       # What read queue length does an incoming req see
system.mem_ctrls.rdQLenPdf::28                      0                       # What read queue length does an incoming req see
system.mem_ctrls.rdQLenPdf::29                      0                       # What read queue length does an incoming req see
system.mem_ctrls.rdQLenPdf::30                      0                       # What read queue length does an incoming req see
system.mem_ctrls.rdQLenPdf::31                      0                       # What read queue length does an incoming req see
system.mem_ctrls.wrQLenPdf::0                       0                       # What write queue length does an incoming req see
system.mem_ctrls.wrQLenPdf::1                       0                       # What write queue length does an incoming req see
system.mem_ctrls.wrQLenPdf::2                       0                       # What write queue length does an incoming req see
system.mem_ctrls.wrQLenPdf::3                       0                       # What write queue length does an incoming req see
system.mem_ctrls.wrQLenPdf::4                       0                       # What write queue length does an incoming req see
system.mem_ctrls.wrQLenPdf::5                       0                       # What write queue length does an incoming req see
system.mem_ctrls.wrQLenPdf::6                       0                       # What write queue length does an incoming req see
system.mem_ctrls.wrQLenPdf::7                       0                       # What write queue length does an incoming req see
system.mem_ctrls.wrQLenPdf::8                       0                       # What write queue length does an incoming req see
system.mem_ctrls.wrQLenPdf::9                       0                       # What write queue length does an incoming req see
system.mem_ctrls.wrQLenPdf::10                      0                       # What write queue length does an incoming req see
system.mem_ctrls.wrQLenPdf::11                      0                       # What write queue length does an incoming req see
system.mem_ctrls.wrQLenPdf::12                      0                       # What write queue length does an incoming req see
system.mem_ctrls.wrQLenPdf::13                      0                       # What write queue length does an incoming req see
system.mem_ctrls.wrQLenPdf::14                      0                       # What write queue length does an incoming req see
system.mem_ctrls.wrQLenPdf::15                      0                       # What write queue length does an incoming req see
system.mem_ctrls.wrQLenPdf::16                      0                       # What write queue length does an incoming req see
system.mem_ctrls.wrQLenPdf::17                      0                       # What write queue length does an incoming req see
system.mem_ctrls.wrQLenPdf::18                      0                       # What write queue length does an incoming req see
system.mem_ctrls.wrQLenPdf::19                      0                       # What write queue length does an incoming req see
system.mem_ctrls.wrQLenPdf::20                      0                       # What write queue length does an incoming req see
system.mem_ctrls.wrQLenPdf::21                      0                       # What write queue length does an incoming req see
system.mem_ctrls.wrQLenPdf::22                      0                       # What write queue length does an incoming req see
system.mem_ctrls.wrQLenPdf::23                      0                       # What write queue length does an incoming req see
system.mem_ctrls.wrQLenPdf::24                      0                       # What write queue length does an incoming req see
system.mem_ctrls.wrQLenPdf::25                      0                       # What write queue length does an incoming req see
system.mem_ctrls.wrQLenPdf::26                      0                       # What write queue length does an incoming req see
system.mem_ctrls.wrQLenPdf::27                      0                       # What write queue length does an incoming req see
system.mem_ctrls.wrQLenPdf::28                      0                       # What write queue length does an incoming req see
system.mem_ctrls.wrQLenPdf::29                      0                       # What write queue length does an incoming req see
system.mem_ctrls.wrQLenPdf::30                      0                       # What write queue length does an incoming req see
system.mem_ctrls.wrQLenPdf::31                      0                       # What write queue length does an incoming req see
system.mem_ctrls.wrQLenPdf::32                      0                       # What write queue length does an incoming req see
system.mem_ctrls.wrQLenPdf::33                      0                       # What write queue length does an incoming req see
system.mem_ctrls.wrQLenPdf::34                      0                       # What write queue length does an incoming req see
system.mem_ctrls.wrQLenPdf::35                      0                       # What write queue length does an incoming req see
system.mem_ctrls.wrQLenPdf::36                      0                       # What write queue length does an incoming req see
system.mem_ctrls.wrQLenPdf::37                      0                       # What write queue length does an incoming req see
system.mem_ctrls.wrQLenPdf::38                      0                       # What write queue length does an incoming req see
system.mem_ctrls.wrQLenPdf::39                      0                       # What write queue length does an incoming req see
system.mem_ctrls.wrQLenPdf::40                      0                       # What write queue length does an incoming req see
system.mem_ctrls.wrQLenPdf::41                      0                       # What write queue length does an incoming req see
system.mem_ctrls.wrQLenPdf::42                      0                       # What write queue length does an incoming req see
system.mem_ctrls.wrQLenPdf::43                      0                       # What write queue length does an incoming req see
system.mem_ctrls.wrQLenPdf::44                      0                       # What write queue length does an incoming req see
system.mem_ctrls.wrQLenPdf::45                      0                       # What write queue length does an incoming req see
system.mem_ctrls.wrQLenPdf::46                      0                       # What write queue length does an incoming req see
system.mem_ctrls.wrQLenPdf::47                      0                       # What write queue length does an incoming req see
system.mem_ctrls.wrQLenPdf::48                      0                       # What write queue length does an incoming req see
system.mem_ctrls.wrQLenPdf::49                      0                       # What write queue length does an incoming req see
system.mem_ctrls.wrQLenPdf::50                      0                       # What write queue length does an incoming req see
system.mem_ctrls.wrQLenPdf::51                      0                       # What write queue length does an incoming req see
system.mem_ctrls.wrQLenPdf::52                      0                       # What write queue length does an incoming req see
system.mem_ctrls.wrQLenPdf::53                      0                       # What write queue length does an incoming req see
system.mem_ctrls.wrQLenPdf::54                      0                       # What write queue length does an incoming req see
system.mem_ctrls.wrQLenPdf::55                      0                       # What write queue length does an incoming req see
system.mem_ctrls.wrQLenPdf::56                      0                       # What write queue length does an incoming req see
system.mem_ctrls.wrQLenPdf::57                      0                       # What write queue length does an incoming req see
system.mem_ctrls.wrQLenPdf::58                      0                       # What write queue length does an incoming req see
system.mem_ctrls.wrQLenPdf::59                      0                       # What write queue length does an incoming req see
system.mem_ctrls.wrQLenPdf::60                      0                       # What write queue length does an incoming req see
system.mem_ctrls.wrQLenPdf::61                      0                       # What write queue length does an incoming req see
system.mem_ctrls.wrQLenPdf::62                      0                       # What write queue length does an incoming req see
system.mem_ctrls.wrQLenPdf::63                      0                       # What write queue length does an incoming req see
system.mem_ctrls.bytesPerActivate::samples        15661                       # Bytes accessed per row activation
system.mem_ctrls.bytesPerActivate::mean    260.160143                       # Bytes accessed per row activation
system.mem_ctrls.bytesPerActivate::gmean   249.258849                       # Bytes accessed per row activation
system.mem_ctrls.bytesPerActivate::stdev    71.548377                       # Bytes accessed per row activation
system.mem_ctrls.bytesPerActivate::0-127          612      3.91%      3.91% # Bytes accessed per row activation
system.mem_ctrls.bytesPerActivate::128-255          712      4.55%      8.45% # Bytes accessed per row activation
system.mem_ctrls.bytesPerActivate::256-383        14048     89.70%     98.15% # Bytes accessed per row activation
system.mem_ctrls.bytesPerActivate::384-511          181      1.16%     99.31% # Bytes accessed per row activation
system.mem_ctrls.bytesPerActivate::512-639           26      0.17%     99.48% # Bytes accessed per row activation
system.mem_ctrls.bytesPerActivate::640-767           19      0.12%     99.60% # Bytes accessed per row activation
system.mem_ctrls.bytesPerActivate::768-895           12      0.08%     99.67% # Bytes accessed per row activation
system.mem_ctrls.bytesPerActivate::896-1023           16      0.10%     99.78% # Bytes accessed per row activation
system.mem_ctrls.bytesPerActivate::1024-1151           35      0.22%    100.00% # Bytes accessed per row activation
system.mem_ctrls.bytesPerActivate::total        15661                       # Bytes accessed per row activation
system.mem_ctrls.totQLat                    670918999                       # Total ticks spent queuing
system.mem_ctrls.totMemAccLat              1865181499                       # Total ticks spent from burst creation until serviced by the DRAM
system.mem_ctrls.totBusLat                  318470000                       # Total ticks spent in databus transfers
system.mem_ctrls.avgQLat                     10533.47                       # Average queueing delay per DRAM burst
system.mem_ctrls.avgBusLat                    5000.00                       # Average bus latency per DRAM burst
system.mem_ctrls.avgMemAccLat                29283.47                       # Average memory access latency per DRAM burst
system.mem_ctrls.avgRdBW                        34.52                       # Average DRAM read bandwidth in MiByte/s
system.mem_ctrls.avgWrBW                         0.00                       # Average achieved write bandwidth in MiByte/s
system.mem_ctrls.avgRdBWSys                     34.52                       # Average system read bandwidth in MiByte/s
system.mem_ctrls.avgWrBWSys                      0.00                       # Average system write bandwidth in MiByte/s
system.mem_ctrls.peakBW                      12800.00                       # Theoretical peak bandwidth in MiByte/s
system.mem_ctrls.busUtil                         0.27                       # Data bus utilization in percentage
system.mem_ctrls.busUtilRead                     0.27                       # Data bus utilization in percentage for reads
system.mem_ctrls.busUtilWrite                    0.00                       # Data bus utilization in percentage for writes
system.mem_ctrls.avgRdQLen                       1.00                       # Average read queue length when enqueuing
system.mem_ctrls.avgWrQLen                       0.00                       # Average write queue length when enqueuing
system.mem_ctrls.readRowHits                    48022                       # Number of row buffer hits during reads
system.mem_ctrls.writeRowHits                       0                       # Number of row buffer hits during writes
system.mem_ctrls.readRowHitRate                 75.39                       # Row buffer hit rate for reads
system.mem_ctrls.writeRowHitRate                  nan                       # Row buffer hit rate for writes
system.mem_ctrls.avgGap                    1854020.08                       # Average gap between requests
system.mem_ctrls.pageHitRate                    75.39                       # Row buffer hit rate, read and write combined
system.mem_ctrls_0.actEnergy                 59066280                       # Energy for activate commands per rank (pJ)
system.mem_ctrls_0.preEnergy                 32228625                       # Energy for precharge commands per rank (pJ)
system.mem_ctrls_0.readEnergy               245005800                       # Energy for read commands per rank (pJ)
system.mem_ctrls_0.writeEnergy                      0                       # Energy for write commands per rank (pJ)
system.mem_ctrls_0.refreshEnergy           7712820960                       # Energy for refresh commands per rank (pJ)
system.mem_ctrls_0.actBackEnergy          36666173115                       # Energy for active background per rank (pJ)
system.mem_ctrls_0.preBackEnergy          38688606750                       # Energy for precharge background per rank (pJ)
system.mem_ctrls_0.totalEnergy            83403901530                       # Total energy per rank (pJ)
system.mem_ctrls_0.averagePower            706.294810                       # Core power per rank (mW)
system.mem_ctrls_0.memoryStateTime::IDLE  64167763750                       # Time in different power states
system.mem_ctrls_0.memoryStateTime::REF    3943160000                       # Time in different power states
system.mem_ctrls_0.memoryStateTime::PRE_PDN            0                       # Time in different power states
system.mem_ctrls_0.memoryStateTime::ACT   49975617500                       # Time in different power states
system.mem_ctrls_0.memoryStateTime::ACT_PDN            0                       # Time in different power states
system.mem_ctrls_1.actEnergy                 59315760                       # Energy for activate commands per rank (pJ)
system.mem_ctrls_1.preEnergy                 32364750                       # Energy for precharge commands per rank (pJ)
system.mem_ctrls_1.readEnergy               251526600                       # Energy for read commands per rank (pJ)
system.mem_ctrls_1.writeEnergy                      0                       # Energy for write commands per rank (pJ)
system.mem_ctrls_1.refreshEnergy           7712820960                       # Energy for refresh commands per rank (pJ)
system.mem_ctrls_1.actBackEnergy          37452563640                       # Energy for active background per rank (pJ)
system.mem_ctrls_1.preBackEnergy          37998782250                       # Energy for precharge background per rank (pJ)
system.mem_ctrls_1.totalEnergy            83507373960                       # Total energy per rank (pJ)
system.mem_ctrls_1.averagePower            707.171135                       # Core power per rank (mW)
system.mem_ctrls_1.memoryStateTime::IDLE  63016893500                       # Time in different power states
system.mem_ctrls_1.memoryStateTime::REF    3943160000                       # Time in different power states
system.mem_ctrls_1.memoryStateTime::PRE_PDN            0                       # Time in different power states
system.mem_ctrls_1.memoryStateTime::ACT   51127696500                       # Time in different power states
system.mem_ctrls_1.memoryStateTime::ACT_PDN            0                       # Time in different power states
system.cpu_voltage_domain.voltage                   1                       # Voltage in Volts
system.cpu_clk_domain.clock                       500                       # Clock period in ticks
system.cpu0.apic_clk_domain.clock                8000                       # Clock period in ticks
system.cpu0.workload.num_syscalls                  61                       # Number of system calls
system.cpu0.numCycles                       236180071                       # number of cpu cycles simulated
system.cpu0.numWorkItemsStarted                     0                       # number of work items this cpu started
system.cpu0.numWorkItemsCompleted                   0                       # number of work items this cpu completed
system.cpu0.committedInsts                   65496086                       # Number of instructions committed
system.cpu0.committedOps                    183046022                       # Number of ops (including micro ops) committed
system.cpu0.num_int_alu_accesses            173050187                       # Number of integer alu accesses
system.cpu0.num_fp_alu_accesses               4677674                       # Number of float alu accesses
system.cpu0.num_func_calls                    6140880                       # number of times a function call or return occured
system.cpu0.num_conditional_control_insts     13949418                       # number of instructions that are conditional controls
system.cpu0.num_int_insts                   173050187                       # number of integer instructions
system.cpu0.num_fp_insts                      4677674                       # number of float instructions
system.cpu0.num_int_register_reads          364621066                       # number of times the integer registers were read
system.cpu0.num_int_register_writes         171969678                       # number of times the integer registers were written
system.cpu0.num_fp_register_reads             7498257                       # number of times the floating registers were read
system.cpu0.num_fp_register_writes            3715154                       # number of times the floating registers were written
system.cpu0.num_cc_register_reads           144802496                       # number of times the CC registers were read
system.cpu0.num_cc_register_writes           54620898                       # number of times the CC registers were written
system.cpu0.num_mem_refs                     28386628                       # number of memory refs
system.cpu0.num_load_insts                   17566863                       # Number of load instructions
system.cpu0.num_store_insts                  10819765                       # Number of store instructions
system.cpu0.num_idle_cycles                  0.002000                       # Number of idle cycles
system.cpu0.num_busy_cycles              236180070.998000                       # Number of busy cycles
system.cpu0.not_idle_fraction                1.000000                       # Percentage of non-idle cycles
system.cpu0.idle_fraction                    0.000000                       # Percentage of idle cycles
system.cpu0.Branches                         23093402                       # Number of branches fetched
system.cpu0.op_class::No_OpClass              3084847      1.69%      1.69% # Class of executed instruction
system.cpu0.op_class::IntAlu                132537727     72.41%     74.09% # Class of executed instruction
system.cpu0.op_class::IntMult                     316      0.00%     74.09% # Class of executed instruction
system.cpu0.op_class::IntDiv                 15322044      8.37%     82.46% # Class of executed instruction
system.cpu0.op_class::FloatAdd                3714460      2.03%     84.49% # Class of executed instruction
system.cpu0.op_class::FloatCmp                      0      0.00%     84.49% # Class of executed instruction
system.cpu0.op_class::FloatCvt                      0      0.00%     84.49% # Class of executed instruction
system.cpu0.op_class::FloatMult                     0      0.00%     84.49% # Class of executed instruction
system.cpu0.op_class::FloatDiv                      0      0.00%     84.49% # Class of executed instruction
system.cpu0.op_class::FloatSqrt                     0      0.00%     84.49% # Class of executed instruction
system.cpu0.op_class::SimdAdd                       0      0.00%     84.49% # Class of executed instruction
system.cpu0.op_class::SimdAddAcc                    0      0.00%     84.49% # Class of executed instruction
system.cpu0.op_class::SimdAlu                       0      0.00%     84.49% # Class of executed instruction
system.cpu0.op_class::SimdCmp                       0      0.00%     84.49% # Class of executed instruction
system.cpu0.op_class::SimdCvt                       0      0.00%     84.49% # Class of executed instruction
system.cpu0.op_class::SimdMisc                      0      0.00%     84.49% # Class of executed instruction
system.cpu0.op_class::SimdMult                      0      0.00%     84.49% # Class of executed instruction
system.cpu0.op_class::SimdMultAcc                   0      0.00%     84.49% # Class of executed instruction
system.cpu0.op_class::SimdShift                     0      0.00%     84.49% # Class of executed instruction
system.cpu0.op_class::SimdShiftAcc                  0      0.00%     84.49% # Class of executed instruction
system.cpu0.op_class::SimdSqrt                      0      0.00%     84.49% # Class of executed instruction
system.cpu0.op_class::SimdFloatAdd                  0      0.00%     84.49% # Class of executed instruction
system.cpu0.op_class::SimdFloatAlu                  0      0.00%     84.49% # Class of executed instruction
system.cpu0.op_class::SimdFloatCmp                  0      0.00%     84.49% # Class of executed instruction
system.cpu0.op_class::SimdFloatCvt                  0      0.00%     84.49% # Class of executed instruction
system.cpu0.op_class::SimdFloatDiv                  0      0.00%     84.49% # Class of executed instruction
system.cpu0.op_class::SimdFloatMisc                 0      0.00%     84.49% # Class of executed instruction
system.cpu0.op_class::SimdFloatMult                 0      0.00%     84.49% # Class of executed instruction
system.cpu0.op_class::SimdFloatMultAcc              0      0.00%     84.49% # Class of executed instruction
system.cpu0.op_class::SimdFloatSqrt                 0      0.00%     84.49% # Class of executed instruction
system.cpu0.op_class::MemRead                17566863      9.60%     94.09% # Class of executed instruction
system.cpu0.op_class::MemWrite               10819765      5.91%    100.00% # Class of executed instruction
system.cpu0.op_class::IprAccess                     0      0.00%    100.00% # Class of executed instruction
system.cpu0.op_class::InstPrefetch                  0      0.00%    100.00% # Class of executed instruction
system.cpu0.op_class::total                 183046022                       # Class of executed instruction
system.cpu1.apic_clk_domain.clock                8000                       # Clock period in ticks
system.cpu1.numCycles                       235968375                       # number of cpu cycles simulated
system.cpu1.numWorkItemsStarted                     0                       # number of work items this cpu started
system.cpu1.numWorkItemsCompleted                   0                       # number of work items this cpu completed
system.cpu1.committedInsts                    2877516                       # Number of instructions committed
system.cpu1.committedOps                      5753471                       # Number of ops (including micro ops) committed
system.cpu1.num_int_alu_accesses              4327355                       # Number of integer alu accesses
system.cpu1.num_fp_alu_accesses               2691675                       # Number of float alu accesses
system.cpu1.num_func_calls                      24751                       # number of times a function call or return occured
system.cpu1.num_conditional_control_insts       341144                       # number of instructions that are conditional controls
system.cpu1.num_int_insts                     4327355                       # number of integer instructions
system.cpu1.num_fp_insts                      2691675                       # number of float instructions
system.cpu1.num_int_register_reads            7670140                       # number of times the integer registers were read
system.cpu1.num_int_register_writes           2706596                       # number of times the integer registers were written
system.cpu1.num_fp_register_reads             4167185                       # number of times the floating registers were read
system.cpu1.num_fp_register_writes            2679320                       # number of times the floating registers were written
system.cpu1.num_cc_register_reads             2059260                       # number of times the CC registers were read
system.cpu1.num_cc_register_writes            2052982                       # number of times the CC registers were written
system.cpu1.num_mem_refs                      1330703                       # number of memory refs
system.cpu1.num_load_insts                    1305886                       # Number of load instructions
system.cpu1.num_store_insts                     24817                       # Number of store instructions
system.cpu1.num_idle_cycles              224849698.977628                       # Number of idle cycles
system.cpu1.num_busy_cycles              11118676.022372                       # Number of busy cycles
system.cpu1.not_idle_fraction                0.047119                       # Percentage of non-idle cycles
system.cpu1.idle_fraction                    0.952881                       # Percentage of idle cycles
system.cpu1.Branches                           379810                       # Number of branches fetched
system.cpu1.op_class::No_OpClass                    2      0.00%      0.00% # Class of executed instruction
system.cpu1.op_class::IntAlu                  2959576     51.44%     51.44% # Class of executed instruction
system.cpu1.op_class::IntMult                   37061      0.64%     52.08% # Class of executed instruction
system.cpu1.op_class::IntDiv                       14      0.00%     52.08% # Class of executed instruction
system.cpu1.op_class::FloatAdd                1426115     24.79%     76.87% # Class of executed instruction
system.cpu1.op_class::FloatCmp                      0      0.00%     76.87% # Class of executed instruction
system.cpu1.op_class::FloatCvt                      0      0.00%     76.87% # Class of executed instruction
system.cpu1.op_class::FloatMult                     0      0.00%     76.87% # Class of executed instruction
system.cpu1.op_class::FloatDiv                      0      0.00%     76.87% # Class of executed instruction
system.cpu1.op_class::FloatSqrt                     0      0.00%     76.87% # Class of executed instruction
system.cpu1.op_class::SimdAdd                       0      0.00%     76.87% # Class of executed instruction
system.cpu1.op_class::SimdAddAcc                    0      0.00%     76.87% # Class of executed instruction
system.cpu1.op_class::SimdAlu                       0      0.00%     76.87% # Class of executed instruction
system.cpu1.op_class::SimdCmp                       0      0.00%     76.87% # Class of executed instruction
system.cpu1.op_class::SimdCvt                       0      0.00%     76.87% # Class of executed instruction
system.cpu1.op_class::SimdMisc                      0      0.00%     76.87% # Class of executed instruction
system.cpu1.op_class::SimdMult                      0      0.00%     76.87% # Class of executed instruction
system.cpu1.op_class::SimdMultAcc                   0      0.00%     76.87% # Class of executed instruction
system.cpu1.op_class::SimdShift                     0      0.00%     76.87% # Class of executed instruction
system.cpu1.op_class::SimdShiftAcc                  0      0.00%     76.87% # Class of executed instruction
system.cpu1.op_class::SimdSqrt                      0      0.00%     76.87% # Class of executed instruction
system.cpu1.op_class::SimdFloatAdd                  0      0.00%     76.87% # Class of executed instruction
system.cpu1.op_class::SimdFloatAlu                  0      0.00%     76.87% # Class of executed instruction
system.cpu1.op_class::SimdFloatCmp                  0      0.00%     76.87% # Class of executed instruction
system.cpu1.op_class::SimdFloatCvt                  0      0.00%     76.87% # Class of executed instruction
system.cpu1.op_class::SimdFloatDiv                  0      0.00%     76.87% # Class of executed instruction
system.cpu1.op_class::SimdFloatMisc                 0      0.00%     76.87% # Class of executed instruction
system.cpu1.op_class::SimdFloatMult                 0      0.00%     76.87% # Class of executed instruction
system.cpu1.op_class::SimdFloatMultAcc              0      0.00%     76.87% # Class of executed instruction
system.cpu1.op_class::SimdFloatSqrt                 0      0.00%     76.87% # Class of executed instruction
system.cpu1.op_class::MemRead                 1305886     22.70%     99.57% # Class of executed instruction
system.cpu1.op_class::MemWrite                  24817      0.43%    100.00% # Class of executed instruction
system.cpu1.op_class::IprAccess                     0      0.00%    100.00% # Class of executed instruction
system.cpu1.op_class::InstPrefetch                  0      0.00%    100.00% # Class of executed instruction
system.cpu1.op_class::total                   5753471                       # Class of executed instruction
system.ruby.clk_domain.clock                      500                       # Clock period in ticks
system.ruby.delayHist::bucket_size                  2                       # delay histogram for all message
system.ruby.delayHist::max_bucket                  19                       # delay histogram for all message
system.ruby.delayHist::samples                 712185                       # delay histogram for all message
system.ruby.delayHist::mean                  0.718395                       # delay histogram for all message
system.ruby.delayHist::stdev                 2.286066                       # delay histogram for all message
system.ruby.delayHist                    |      648132     91.01%     91.01% |          12      0.00%     91.01% |         247      0.03%     91.04% |           0      0.00%     91.04% |       63791      8.96%    100.00% |           1      0.00%    100.00% |           0      0.00%    100.00% |           1      0.00%    100.00% |           0      0.00%    100.00% |           1      0.00%    100.00% # delay histogram for all message
system.ruby.delayHist::total                   712185                       # delay histogram for all message
system.ruby.outstanding_req_hist::bucket_size            1                      
system.ruby.outstanding_req_hist::max_bucket            9                      
system.ruby.outstanding_req_hist::samples    118765111                      
system.ruby.outstanding_req_hist::mean       1.000117                      
system.ruby.outstanding_req_hist::gmean      1.000081                      
system.ruby.outstanding_req_hist::stdev      0.010831                      
system.ruby.outstanding_req_hist         |           0      0.00%      0.00% |   118751178     99.99%     99.99% |       13933      0.01%    100.00% |           0      0.00%    100.00% |           0      0.00%    100.00% |           0      0.00%    100.00% |           0      0.00%    100.00% |           0      0.00%    100.00% |           0      0.00%    100.00% |           0      0.00%    100.00%
system.ruby.outstanding_req_hist::total     118765111                      
system.ruby.latency_hist::bucket_size             128                      
system.ruby.latency_hist::max_bucket             1279                      
system.ruby.latency_hist::samples           118765111                      
system.ruby.latency_hist::mean               1.082507                      
system.ruby.latency_hist::gmean              1.004222                      
system.ruby.latency_hist::stdev              3.760223                      
system.ruby.latency_hist                 |   118749438     99.99%     99.99% |       13601      0.01%    100.00% |          30      0.00%    100.00% |         131      0.00%    100.00% |        1670      0.00%    100.00% |         241      0.00%    100.00% |           0      0.00%    100.00% |           0      0.00%    100.00% |           0      0.00%    100.00% |           0      0.00%    100.00%
system.ruby.latency_hist::total             118765111                      
system.ruby.hit_latency_hist::bucket_size          128                      
system.ruby.hit_latency_hist::max_bucket         1279                      
system.ruby.hit_latency_hist::samples       118765111                      
system.ruby.hit_latency_hist::mean           1.082507                      
system.ruby.hit_latency_hist::gmean          1.004222                      
system.ruby.hit_latency_hist::stdev          3.760223                      
system.ruby.hit_latency_hist             |   118749438     99.99%     99.99% |       13601      0.01%    100.00% |          30      0.00%    100.00% |         131      0.00%    100.00% |        1670      0.00%    100.00% |         241      0.00%    100.00% |           0      0.00%    100.00% |           0      0.00%    100.00% |           0      0.00%    100.00% |           0      0.00%    100.00%
system.ruby.hit_latency_hist::total         118765111                      
system.ruby.l0_cntrl0.Dcache.demand_hits     28324378                       # Number of cache demand hits
system.ruby.l0_cntrl0.Dcache.demand_misses        62314                       # Number of cache demand misses
system.ruby.l0_cntrl0.Dcache.demand_accesses     28386692                       # Number of cache demand accesses
system.ruby.l0_cntrl0.Icache.demand_hits     85331052                       # Number of cache demand hits
system.ruby.l0_cntrl0.Icache.demand_misses         1857                       # Number of cache demand misses
system.ruby.l0_cntrl0.Icache.demand_accesses     85332909                       # Number of cache demand accesses
system.ruby.l0_cntrl0.Zcache.demand_hits            0                       # Number of cache demand hits
system.ruby.l0_cntrl0.Zcache.demand_misses            0                       # Number of cache demand misses
system.ruby.l0_cntrl0.Zcache.demand_accesses            0                       # Number of cache demand accesses
system.ruby.l0_cntrl1.Dcache.demand_hits      1261105                       # Number of cache demand hits
system.ruby.l0_cntrl1.Dcache.demand_misses        83467                       # Number of cache demand misses
system.ruby.l0_cntrl1.Dcache.demand_accesses      1344572                       # Number of cache demand accesses
system.ruby.l0_cntrl1.Icache.demand_hits      3700738                       # Number of cache demand hits
system.ruby.l0_cntrl1.Icache.demand_misses          200                       # Number of cache demand misses
system.ruby.l0_cntrl1.Icache.demand_accesses      3700938                       # Number of cache demand accesses
system.ruby.l0_cntrl1.Zcache.demand_hits            0                       # Number of cache demand hits
system.ruby.l0_cntrl1.Zcache.demand_misses            0                       # Number of cache demand misses
system.ruby.l0_cntrl1.Zcache.demand_accesses            0                       # Number of cache demand accesses
system.ruby.l1_cntrl0.cache.demand_hits           185                       # Number of cache demand hits
system.ruby.l1_cntrl0.cache.demand_misses        63986                       # Number of cache demand misses
system.ruby.l1_cntrl0.cache.demand_accesses        64171                       # Number of cache demand accesses
system.ruby.l1_cntrl1.cache.demand_hits         46684                       # Number of cache demand hits
system.ruby.l1_cntrl1.cache.demand_misses        36983                       # Number of cache demand misses
system.ruby.l1_cntrl1.cache.demand_accesses        83667                       # Number of cache demand accesses
system.ruby.l2_cntrl0.L2cache.demand_hits        35579                       # Number of cache demand hits
system.ruby.l2_cntrl0.L2cache.demand_misses        65390                       # Number of cache demand misses
system.ruby.l2_cntrl0.L2cache.demand_accesses       100969                       # Number of cache demand accesses
system.ruby.memctrl_clk_domain.clock             1500                       # Clock period in ticks
system.ruby.network.routers0.percent_links_utilized            0                      
system.ruby.network.routers1.percent_links_utilized            0                      
system.ruby.network.routers2.percent_links_utilized     0.142285                      
system.ruby.network.routers2.msg_count.Control::0        63986                      
system.ruby.network.routers2.msg_count.Request_Control::2         1690                      
system.ruby.network.routers2.msg_count.Response_Data::1        67352                      
system.ruby.network.routers2.msg_count.Response_Control::1        61285                      
system.ruby.network.routers2.msg_count.Response_Control::2        63985                      
system.ruby.network.routers2.msg_count.Writeback_Data::0        60727                      
system.ruby.network.routers2.msg_count.Writeback_Control::0          536                      
system.ruby.network.routers2.msg_bytes.Control::0       511888                      
system.ruby.network.routers2.msg_bytes.Request_Control::2        13520                      
system.ruby.network.routers2.msg_bytes.Response_Data::1      4849344                      
system.ruby.network.routers2.msg_bytes.Response_Control::1       490280                      
system.ruby.network.routers2.msg_bytes.Response_Control::2       511880                      
system.ruby.network.routers2.msg_bytes.Writeback_Data::0      4372344                      
system.ruby.network.routers2.msg_bytes.Writeback_Control::0         4288                      
system.ruby.network.routers3.percent_links_utilized     0.051625                      
system.ruby.network.routers3.msg_count.Control::0        36983                      
system.ruby.network.routers3.msg_count.Request_Control::2           17                      
system.ruby.network.routers3.msg_count.Response_Data::1        36995                      
system.ruby.network.routers3.msg_count.Response_Control::1        34921                      
system.ruby.network.routers3.msg_count.Response_Control::2        36963                      
system.ruby.network.routers3.msg_count.Writeback_Data::0         1371                      
system.ruby.network.routers3.msg_count.Writeback_Control::0        33537                      
system.ruby.network.routers3.msg_bytes.Control::0       295864                      
system.ruby.network.routers3.msg_bytes.Request_Control::2          136                      
system.ruby.network.routers3.msg_bytes.Response_Data::1      2663640                      
system.ruby.network.routers3.msg_bytes.Response_Control::1       279368                      
system.ruby.network.routers3.msg_bytes.Response_Control::2       295704                      
system.ruby.network.routers3.msg_bytes.Writeback_Data::0        98712                      
system.ruby.network.routers3.msg_bytes.Writeback_Control::0       268296                      
system.ruby.network.routers4.percent_links_utilized     0.258098                      
system.ruby.network.routers4.msg_count.Control::0       164663                      
system.ruby.network.routers4.msg_count.Request_Control::2         1707                      
system.ruby.network.routers4.msg_count.Response_Data::1       164650                      
system.ruby.network.routers4.msg_count.Response_Control::1        96182                      
system.ruby.network.routers4.msg_count.Response_Control::2       100948                      
system.ruby.network.routers4.msg_count.Writeback_Data::0        62098                      
system.ruby.network.routers4.msg_count.Writeback_Control::0        34073                      
system.ruby.network.routers4.msg_bytes.Control::0      1317304                      
system.ruby.network.routers4.msg_bytes.Request_Control::2        13656                      
system.ruby.network.routers4.msg_bytes.Response_Data::1     11854800                      
system.ruby.network.routers4.msg_bytes.Response_Control::1       769456                      
system.ruby.network.routers4.msg_bytes.Response_Control::2       807584                      
system.ruby.network.routers4.msg_bytes.Writeback_Data::0      4471056                      
system.ruby.network.routers4.msg_bytes.Writeback_Control::0       272584                      
system.ruby.network.routers5.percent_links_utilized     0.067421                      
system.ruby.network.routers5.msg_count.Control::0        63694                      
system.ruby.network.routers5.msg_count.Response_Data::1        63694                      
system.ruby.network.routers5.msg_bytes.Control::0       509552                      
system.ruby.network.routers5.msg_bytes.Response_Data::1      4585968                      
system.ruby.network.routers6.percent_links_utilized     0.086572                      
system.ruby.network.routers6.msg_count.Control::0       164663                      
system.ruby.network.routers6.msg_count.Request_Control::2         1707                      
system.ruby.network.routers6.msg_count.Response_Data::1       166346                      
system.ruby.network.routers6.msg_count.Response_Control::1        96194                      
system.ruby.network.routers6.msg_count.Response_Control::2       100948                      
system.ruby.network.routers6.msg_count.Writeback_Data::0        62098                      
system.ruby.network.routers6.msg_count.Writeback_Control::0        34073                      
system.ruby.network.routers6.msg_bytes.Control::0      1317304                      
system.ruby.network.routers6.msg_bytes.Request_Control::2        13656                      
system.ruby.network.routers6.msg_bytes.Response_Data::1     11976912                      
system.ruby.network.routers6.msg_bytes.Response_Control::1       769552                      
system.ruby.network.routers6.msg_bytes.Response_Control::2       807584                      
system.ruby.network.routers6.msg_bytes.Writeback_Data::0      4471056                      
system.ruby.network.routers6.msg_bytes.Writeback_Control::0       272584                      
system.ruby.network.msg_count.Control          493989                      
system.ruby.network.msg_count.Request_Control         5121                      
system.ruby.network.msg_count.Response_Data       499037                      
system.ruby.network.msg_count.Response_Control       591426                      
system.ruby.network.msg_count.Writeback_Data       186294                      
system.ruby.network.msg_count.Writeback_Control       102219                      
system.ruby.network.msg_byte.Control          3951912                      
system.ruby.network.msg_byte.Request_Control        40968                      
system.ruby.network.msg_byte.Response_Data     35930664                      
system.ruby.network.msg_byte.Response_Control      4731408                      
system.ruby.network.msg_byte.Writeback_Data     13413168                      
system.ruby.network.msg_byte.Writeback_Control       817752                      
system.ruby.network.routers0.throttle0.link_utilization            0                      
system.ruby.network.routers0.throttle1.link_utilization            0                      
system.ruby.network.routers1.throttle0.link_utilization            0                      
system.ruby.network.routers1.throttle1.link_utilization            0                      
system.ruby.network.routers2.throttle0.link_utilization     0.135227                      
system.ruby.network.routers2.throttle0.msg_count.Request_Control::2         1690                      
system.ruby.network.routers2.throttle0.msg_count.Response_Data::1        63976                      
system.ruby.network.routers2.throttle0.msg_count.Response_Control::1        61283                      
system.ruby.network.routers2.throttle0.msg_bytes.Request_Control::2        13520                      
system.ruby.network.routers2.throttle0.msg_bytes.Response_Data::1      4606272                      
system.ruby.network.routers2.throttle0.msg_bytes.Response_Control::1       490264                      
system.ruby.network.routers2.throttle1.link_utilization     0.149343                      
system.ruby.network.routers2.throttle1.msg_count.Control::0        63986                      
system.ruby.network.routers2.throttle1.msg_count.Response_Data::1         3376                      
system.ruby.network.routers2.throttle1.msg_count.Response_Control::1            2                      
system.ruby.network.routers2.throttle1.msg_count.Response_Control::2        63985                      
system.ruby.network.routers2.throttle1.msg_count.Writeback_Data::0        60727                      
system.ruby.network.routers2.throttle1.msg_count.Writeback_Control::0          536                      
system.ruby.network.routers2.throttle1.msg_bytes.Control::0       511888                      
system.ruby.network.routers2.throttle1.msg_bytes.Response_Data::1       243072                      
system.ruby.network.routers2.throttle1.msg_bytes.Response_Control::1           16                      
system.ruby.network.routers2.throttle1.msg_bytes.Response_Control::2       511880                      
system.ruby.network.routers2.throttle1.msg_bytes.Writeback_Data::0      4372344                      
system.ruby.network.routers2.throttle1.msg_bytes.Writeback_Control::0         4288                      
system.ruby.network.routers3.throttle0.link_utilization     0.077857                      
system.ruby.network.routers3.throttle0.msg_count.Request_Control::2           17                      
system.ruby.network.routers3.throttle0.msg_count.Response_Data::1        36982                      
system.ruby.network.routers3.throttle0.msg_count.Response_Control::1        34911                      
system.ruby.network.routers3.throttle0.msg_bytes.Request_Control::2          136                      
system.ruby.network.routers3.throttle0.msg_bytes.Response_Data::1      2662704                      
system.ruby.network.routers3.throttle0.msg_bytes.Response_Control::1       279288                      
system.ruby.network.routers3.throttle1.link_utilization     0.025394                      
system.ruby.network.routers3.throttle1.msg_count.Control::0        36983                      
system.ruby.network.routers3.throttle1.msg_count.Response_Data::1           13                      
system.ruby.network.routers3.throttle1.msg_count.Response_Control::1           10                      
system.ruby.network.routers3.throttle1.msg_count.Response_Control::2        36963                      
system.ruby.network.routers3.throttle1.msg_count.Writeback_Data::0         1371                      
system.ruby.network.routers3.throttle1.msg_count.Writeback_Control::0        33537                      
system.ruby.network.routers3.throttle1.msg_bytes.Control::0       295864                      
system.ruby.network.routers3.throttle1.msg_bytes.Response_Data::1          936                      
system.ruby.network.routers3.throttle1.msg_bytes.Response_Control::1           80                      
system.ruby.network.routers3.throttle1.msg_bytes.Response_Control::2       295704                      
system.ruby.network.routers3.throttle1.msg_bytes.Writeback_Data::0        98712                      
system.ruby.network.routers3.throttle1.msg_bytes.Writeback_Control::0       268296                      
system.ruby.network.routers4.throttle0.link_utilization     0.292862                      
system.ruby.network.routers4.throttle0.msg_count.Control::0       100969                      
system.ruby.network.routers4.throttle0.msg_count.Response_Data::1        65388                      
system.ruby.network.routers4.throttle0.msg_count.Response_Control::2       100948                      
system.ruby.network.routers4.throttle0.msg_count.Writeback_Data::0        62098                      
system.ruby.network.routers4.throttle0.msg_count.Writeback_Control::0        34073                      
system.ruby.network.routers4.throttle0.msg_bytes.Control::0       807752                      
system.ruby.network.routers4.throttle0.msg_bytes.Response_Data::1      4707936                      
system.ruby.network.routers4.throttle0.msg_bytes.Response_Control::2       807584                      
system.ruby.network.routers4.throttle0.msg_bytes.Writeback_Data::0      4471056                      
system.ruby.network.routers4.throttle0.msg_bytes.Writeback_Control::0       272584                      
system.ruby.network.routers4.throttle1.link_utilization     0.223334                      
system.ruby.network.routers4.throttle1.msg_count.Control::0        63694                      
system.ruby.network.routers4.throttle1.msg_count.Request_Control::2         1707                      
system.ruby.network.routers4.throttle1.msg_count.Response_Data::1        99262                      
system.ruby.network.routers4.throttle1.msg_count.Response_Control::1        96182                      
system.ruby.network.routers4.throttle1.msg_bytes.Control::0       509552                      
system.ruby.network.routers4.throttle1.msg_bytes.Request_Control::2        13656                      
system.ruby.network.routers4.throttle1.msg_bytes.Response_Data::1      7146864                      
system.ruby.network.routers4.throttle1.msg_bytes.Response_Control::1       769456                      
system.ruby.network.routers5.throttle0.link_utilization     0.013484                      
system.ruby.network.routers5.throttle0.msg_count.Control::0        63694                      
system.ruby.network.routers5.throttle0.msg_bytes.Control::0       509552                      
system.ruby.network.routers5.throttle1.link_utilization     0.121358                      
system.ruby.network.routers5.throttle1.msg_count.Response_Data::1        63694                      
system.ruby.network.routers5.throttle1.msg_bytes.Response_Data::1      4585968                      
system.ruby.network.routers6.throttle0.link_utilization            0                      
system.ruby.network.routers6.throttle1.link_utilization            0                      
system.ruby.network.routers6.throttle2.link_utilization     0.135227                      
system.ruby.network.routers6.throttle2.msg_count.Request_Control::2         1690                      
system.ruby.network.routers6.throttle2.msg_count.Response_Data::1        63976                      
system.ruby.network.routers6.throttle2.msg_count.Response_Control::1        61283                      
system.ruby.network.routers6.throttle2.msg_bytes.Request_Control::2        13520                      
system.ruby.network.routers6.throttle2.msg_bytes.Response_Data::1      4606272                      
system.ruby.network.routers6.throttle2.msg_bytes.Response_Control::1       490264                      
system.ruby.network.routers6.throttle3.link_utilization     0.077857                      
system.ruby.network.routers6.throttle3.msg_count.Request_Control::2           17                      
system.ruby.network.routers6.throttle3.msg_count.Response_Data::1        36982                      
system.ruby.network.routers6.throttle3.msg_count.Response_Control::1        34911                      
system.ruby.network.routers6.throttle3.msg_bytes.Request_Control::2          136                      
system.ruby.network.routers6.throttle3.msg_bytes.Response_Data::1      2662704                      
system.ruby.network.routers6.throttle3.msg_bytes.Response_Control::1       279288                      
system.ruby.network.routers6.throttle4.link_utilization     0.292862                      
system.ruby.network.routers6.throttle4.msg_count.Control::0       100969                      
system.ruby.network.routers6.throttle4.msg_count.Response_Data::1        65388                      
system.ruby.network.routers6.throttle4.msg_count.Response_Control::2       100948                      
system.ruby.network.routers6.throttle4.msg_count.Writeback_Data::0        62098                      
system.ruby.network.routers6.throttle4.msg_count.Writeback_Control::0        34073                      
system.ruby.network.routers6.throttle4.msg_bytes.Control::0       807752                      
system.ruby.network.routers6.throttle4.msg_bytes.Response_Data::1      4707936                      
system.ruby.network.routers6.throttle4.msg_bytes.Response_Control::2       807584                      
system.ruby.network.routers6.throttle4.msg_bytes.Writeback_Data::0      4471056                      
system.ruby.network.routers6.throttle4.msg_bytes.Writeback_Control::0       272584                      
system.ruby.network.routers6.throttle5.link_utilization     0.013484                      
system.ruby.network.routers6.throttle5.msg_count.Control::0        63694                      
system.ruby.network.routers6.throttle5.msg_bytes.Control::0       509552                      
system.ruby.delayVCHist.vnet_0::bucket_size            2                       # delay histogram for vnet_0
system.ruby.delayVCHist.vnet_0::max_bucket           19                       # delay histogram for vnet_0
system.ruby.delayVCHist.vnet_0::samples        298088                       # delay histogram for vnet_0
system.ruby.delayVCHist.vnet_0::mean         1.666716                       # delay histogram for vnet_0
system.ruby.delayVCHist.vnet_0::stdev        3.249001                       # delay histogram for vnet_0
system.ruby.delayVCHist.vnet_0           |      235977     79.16%     79.16% |          12      0.00%     79.17% |           0      0.00%     79.17% |           0      0.00%     79.17% |       62097     20.83%    100.00% |           1      0.00%    100.00% |           0      0.00%    100.00% |           0      0.00%    100.00% |           0      0.00%    100.00% |           1      0.00%    100.00% # delay histogram for vnet_0
system.ruby.delayVCHist.vnet_0::total          298088                       # delay histogram for vnet_0
system.ruby.delayVCHist.vnet_1::bucket_size            1                       # delay histogram for vnet_1
system.ruby.delayVCHist.vnet_1::max_bucket            9                       # delay histogram for vnet_1
system.ruby.delayVCHist.vnet_1::samples        410378                       # delay histogram for vnet_1
system.ruby.delayVCHist.vnet_1::mean         0.033023                       # delay histogram for vnet_1
system.ruby.delayVCHist.vnet_1::stdev        0.512929                       # delay histogram for vnet_1
system.ruby.delayVCHist.vnet_1           |      408684     99.59%     99.59% |           0      0.00%     99.59% |           0      0.00%     99.59% |           0      0.00%     99.59% |           0      0.00%     99.59% |           0      0.00%     99.59% |           0      0.00%     99.59% |           0      0.00%     99.59% |        1694      0.41%    100.00% |           0      0.00%    100.00% # delay histogram for vnet_1
system.ruby.delayVCHist.vnet_1::total          410378                       # delay histogram for vnet_1
system.ruby.delayVCHist.vnet_2::bucket_size            2                       # delay histogram for vnet_2
system.ruby.delayVCHist.vnet_2::max_bucket           19                       # delay histogram for vnet_2
system.ruby.delayVCHist.vnet_2::samples          3719                       # delay histogram for vnet_2
system.ruby.delayVCHist.vnet_2::mean         0.336112                       # delay histogram for vnet_2
system.ruby.delayVCHist.vnet_2::stdev        1.268209                       # delay histogram for vnet_2
system.ruby.delayVCHist.vnet_2           |        3471     93.33%     93.33% |           0      0.00%     93.33% |         247      6.64%     99.97% |           0      0.00%     99.97% |           0      0.00%     99.97% |           0      0.00%     99.97% |           0      0.00%     99.97% |           1      0.03%    100.00% |           0      0.00%    100.00% |           0      0.00%    100.00% # delay histogram for vnet_2
system.ruby.delayVCHist.vnet_2::total            3719                       # delay histogram for vnet_2
system.ruby.LD.latency_hist::bucket_size           64                      
system.ruby.LD.latency_hist::max_bucket           639                      
system.ruby.LD.latency_hist::samples         16841005                      
system.ruby.LD.latency_hist::mean            1.057398                      
system.ruby.LD.latency_hist::gmean           1.011217                      
system.ruby.LD.latency_hist::stdev           1.116594                      
system.ruby.LD.latency_hist              |    16840777    100.00%    100.00% |         117      0.00%    100.00% |         109      0.00%    100.00% |           0      0.00%    100.00% |           0      0.00%    100.00% |           0      0.00%    100.00% |           0      0.00%    100.00% |           0      0.00%    100.00% |           1      0.00%    100.00% |           1      0.00%    100.00%
system.ruby.LD.latency_hist::total           16841005                      
system.ruby.LD.hit_latency_hist::bucket_size           64                      
system.ruby.LD.hit_latency_hist::max_bucket          639                      
system.ruby.LD.hit_latency_hist::samples     16841005                      
system.ruby.LD.hit_latency_hist::mean        1.057398                      
system.ruby.LD.hit_latency_hist::gmean       1.011217                      
system.ruby.LD.hit_latency_hist::stdev       1.116594                      
system.ruby.LD.hit_latency_hist          |    16840777    100.00%    100.00% |         117      0.00%    100.00% |         109      0.00%    100.00% |           0      0.00%    100.00% |           0      0.00%    100.00% |           0      0.00%    100.00% |           0      0.00%    100.00% |           0      0.00%    100.00% |           1      0.00%    100.00% |           1      0.00%    100.00%
system.ruby.LD.hit_latency_hist::total       16841005                      
system.ruby.ST.latency_hist::bucket_size          128                      
system.ruby.ST.latency_hist::max_bucket          1279                      
system.ruby.ST.latency_hist::samples          8799290                      
system.ruby.ST.latency_hist::mean            1.984311                      
system.ruby.ST.latency_hist::gmean           1.035152                      
system.ruby.ST.latency_hist::stdev          13.598875                      
system.ruby.ST.latency_hist              |     8784006     99.83%     99.83% |       13230      0.15%     99.98% |          28      0.00%     99.98% |         129      0.00%     99.98% |        1659      0.02%    100.00% |         238      0.00%    100.00% |           0      0.00%    100.00% |           0      0.00%    100.00% |           0      0.00%    100.00% |           0      0.00%    100.00%
system.ruby.ST.latency_hist::total            8799290                      
system.ruby.ST.hit_latency_hist::bucket_size          128                      
system.ruby.ST.hit_latency_hist::max_bucket         1279                      
system.ruby.ST.hit_latency_hist::samples      8799290                      
system.ruby.ST.hit_latency_hist::mean        1.984311                      
system.ruby.ST.hit_latency_hist::gmean       1.035152                      
system.ruby.ST.hit_latency_hist::stdev      13.598875                      
system.ruby.ST.hit_latency_hist          |     8784006     99.83%     99.83% |       13230      0.15%     99.98% |          28      0.00%     99.98% |         129      0.00%     99.98% |        1659      0.02%    100.00% |         238      0.00%    100.00% |           0      0.00%    100.00% |           0      0.00%    100.00% |           0      0.00%    100.00% |           0      0.00%    100.00%
system.ruby.ST.hit_latency_hist::total        8799290                      
system.ruby.IFETCH.latency_hist::bucket_size          128                      
system.ruby.IFETCH.latency_hist::max_bucket         1279                      
system.ruby.IFETCH.latency_hist::samples     89033847                      
system.ruby.IFETCH.latency_hist::mean        1.001906                      
system.ruby.IFETCH.latency_hist::gmean       1.000094                      
system.ruby.IFETCH.latency_hist::stdev       0.510070                      
system.ruby.IFETCH.latency_hist          |    89033571    100.00%    100.00% |         260      0.00%    100.00% |           2      0.00%    100.00% |           2      0.00%    100.00% |           9      0.00%    100.00% |           3      0.00%    100.00% |           0      0.00%    100.00% |           0      0.00%    100.00% |           0      0.00%    100.00% |           0      0.00%    100.00%
system.ruby.IFETCH.latency_hist::total       89033847                      
system.ruby.IFETCH.hit_latency_hist::bucket_size          128                      
system.ruby.IFETCH.hit_latency_hist::max_bucket         1279                      
system.ruby.IFETCH.hit_latency_hist::samples     89033847                      
system.ruby.IFETCH.hit_latency_hist::mean     1.001906                      
system.ruby.IFETCH.hit_latency_hist::gmean     1.000094                      
system.ruby.IFETCH.hit_latency_hist::stdev     0.510070                      
system.ruby.IFETCH.hit_latency_hist      |    89033571    100.00%    100.00% |         260      0.00%    100.00% |           2      0.00%    100.00% |           2      0.00%    100.00% |           9      0.00%    100.00% |           3      0.00%    100.00% |           0      0.00%    100.00% |           0      0.00%    100.00% |           0      0.00%    100.00% |           0      0.00%    100.00%
system.ruby.IFETCH.hit_latency_hist::total     89033847                      
system.ruby.RMW_Read.latency_hist::bucket_size            4                      
system.ruby.RMW_Read.latency_hist::max_bucket           39                      
system.ruby.RMW_Read.latency_hist::samples          375                      
system.ruby.RMW_Read.latency_hist::mean      1.352000                      
system.ruby.RMW_Read.latency_hist::gmean     1.052942                      
system.ruby.RMW_Read.latency_hist::stdev     2.940377                      
system.ruby.RMW_Read.latency_hist        |         368     98.13%     98.13% |           2      0.53%     98.67% |           0      0.00%     98.67% |           0      0.00%     98.67% |           0      0.00%     98.67% |           3      0.80%     99.47% |           0      0.00%     99.47% |           0      0.00%     99.47% |           2      0.53%    100.00% |           0      0.00%    100.00%
system.ruby.RMW_Read.latency_hist::total          375                      
system.ruby.RMW_Read.hit_latency_hist::bucket_size            4                      
system.ruby.RMW_Read.hit_latency_hist::max_bucket           39                      
system.ruby.RMW_Read.hit_latency_hist::samples          375                      
system.ruby.RMW_Read.hit_latency_hist::mean     1.352000                      
system.ruby.RMW_Read.hit_latency_hist::gmean     1.052942                      
system.ruby.RMW_Read.hit_latency_hist::stdev     2.940377                      
system.ruby.RMW_Read.hit_latency_hist    |         368     98.13%     98.13% |           2      0.53%     98.67% |           0      0.00%     98.67% |           0      0.00%     98.67% |           0      0.00%     98.67% |           3      0.80%     99.47% |           0      0.00%     99.47% |           0      0.00%     99.47% |           2      0.53%    100.00% |           0      0.00%    100.00%
system.ruby.RMW_Read.hit_latency_hist::total          375                      
system.ruby.Locked_RMW_Read.latency_hist::bucket_size           32                      
system.ruby.Locked_RMW_Read.latency_hist::max_bucket          319                      
system.ruby.Locked_RMW_Read.latency_hist::samples      2045297                      
system.ruby.Locked_RMW_Read.latency_hist::mean     1.000572                      
system.ruby.Locked_RMW_Read.latency_hist::gmean     1.000063                      
system.ruby.Locked_RMW_Read.latency_hist::stdev     0.183249                      
system.ruby.Locked_RMW_Read.latency_hist |     2045295    100.00%    100.00% |           0      0.00%    100.00% |           0      0.00%    100.00% |           0      0.00%    100.00% |           1      0.00%    100.00% |           1      0.00%    100.00% |           0      0.00%    100.00% |           0      0.00%    100.00% |           0      0.00%    100.00% |           0      0.00%    100.00%
system.ruby.Locked_RMW_Read.latency_hist::total      2045297                      
system.ruby.Locked_RMW_Read.hit_latency_hist::bucket_size           32                      
system.ruby.Locked_RMW_Read.hit_latency_hist::max_bucket          319                      
system.ruby.Locked_RMW_Read.hit_latency_hist::samples      2045297                      
system.ruby.Locked_RMW_Read.hit_latency_hist::mean     1.000572                      
system.ruby.Locked_RMW_Read.hit_latency_hist::gmean     1.000063                      
system.ruby.Locked_RMW_Read.hit_latency_hist::stdev     0.183249                      
system.ruby.Locked_RMW_Read.hit_latency_hist |     2045295    100.00%    100.00% |           0      0.00%    100.00% |           0      0.00%    100.00% |           0      0.00%    100.00% |           1      0.00%    100.00% |           1      0.00%    100.00% |           0      0.00%    100.00% |           0      0.00%    100.00% |           0      0.00%    100.00% |           0      0.00%    100.00%
system.ruby.Locked_RMW_Read.hit_latency_hist::total      2045297                      
system.ruby.Locked_RMW_Write.latency_hist::bucket_size            1                      
system.ruby.Locked_RMW_Write.latency_hist::max_bucket            9                      
system.ruby.Locked_RMW_Write.latency_hist::samples      2045297                      
system.ruby.Locked_RMW_Write.latency_hist::mean            1                      
system.ruby.Locked_RMW_Write.latency_hist::gmean            1                      
[...]
system.ruby.L0Cache_Controller.Ifetch::total     89033847                      
system.ruby.L0Cache_Controller.Store     |    12865435     99.81%     99.81% |       24824      0.19%    100.00%
system.ruby.L0Cache_Controller.Store::total     12890259                      
system.ruby.L0Cache_Controller.Inv       |        1365     67.84%     67.84% |         647     32.16%    100.00%
system.ruby.L0Cache_Controller.Inv::total         2012                      
system.ruby.L0Cache_Controller.L0_Replacement |       62120     42.87%     42.87% |       82770     57.13%    100.00%
system.ruby.L0Cache_Controller.L0_Replacement::total       144890                      
system.ruby.L0Cache_Controller.Data      |          20      1.15%      1.15% |        1723     98.85%    100.00%
system.ruby.L0Cache_Controller.Data::total         1743                      
system.ruby.L0Cache_Controller.Data_Exclusive |       64151     43.91%     43.91% |       81944     56.09%    100.00%
system.ruby.L0Cache_Controller.Data_Exclusive::total       146095                      
system.ruby.L0Cache_Controller.NP.Load   |         637      0.76%      0.76% |       82675     99.24%    100.00%
system.ruby.L0Cache_Controller.NP.Load::total        83312                      
system.ruby.L0Cache_Controller.NP.Ifetch |        1857     90.28%     90.28% |         200      9.72%    100.00%
system.ruby.L0Cache_Controller.NP.Ifetch::total         2057                      
system.ruby.L0Cache_Controller.NP.Store  |       61667     98.73%     98.73% |         791      1.27%    100.00%
system.ruby.L0Cache_Controller.NP.Store::total        62458                      
system.ruby.L0Cache_Controller.NP.Inv    |           0      0.00%      0.00% |          15    100.00%    100.00%
system.ruby.L0Cache_Controller.NP.Inv::total           15                      
system.ruby.L0Cache_Controller.S.Load    |      618366     97.63%     97.63% |       14980      2.37%    100.00%
system.ruby.L0Cache_Controller.S.Load::total       633346                      
system.ruby.L0Cache_Controller.S.Ifetch  |          24     12.57%     12.57% |         167     87.43%    100.00%
system.ruby.L0Cache_Controller.S.Ifetch::total          191                      
system.ruby.L0Cache_Controller.S.Store   |          10     90.91%     90.91% |           1      9.09%    100.00%
system.ruby.L0Cache_Controller.S.Store::total           11                      
system.ruby.L0Cache_Controller.S.Inv     |           2     10.53%     10.53% |          17     89.47%    100.00%
system.ruby.L0Cache_Controller.S.Inv::total           19                      
system.ruby.L0Cache_Controller.S.L0_Replacement |           5      0.34%      0.34% |        1483     99.66%    100.00%
system.ruby.L0Cache_Controller.S.L0_Replacement::total         1488                      
system.ruby.L0Cache_Controller.E.Load    |     2042577     62.80%     62.80% |     1209678     37.20%    100.00%
system.ruby.L0Cache_Controller.E.Load::total      3252255                      
system.ruby.L0Cache_Controller.E.Ifetch  |    85331028     95.84%     95.84% |     3700571      4.16%    100.00%
system.ruby.L0Cache_Controller.E.Ifetch::total     89031599                      
system.ruby.L0Cache_Controller.E.Store   |         232     89.23%     89.23% |          28     10.77%    100.00%
system.ruby.L0Cache_Controller.E.Store::total          260                      
system.ruby.L0Cache_Controller.E.Inv     |         946     61.51%     61.51% |         592     38.49%    100.00%
system.ruby.L0Cache_Controller.E.Inv::total         1538                      
system.ruby.L0Cache_Controller.E.L0_Replacement |         741      0.91%      0.91% |       80516     99.09%    100.00%
system.ruby.L0Cache_Controller.E.L0_Replacement::total        81257                      
system.ruby.L0Cache_Controller.M.Load    |    12859677     99.90%     99.90% |       12415      0.10%    100.00%
system.ruby.L0Cache_Controller.M.Load::total     12872092                      
system.ruby.L0Cache_Controller.M.Store   |    12803526     99.81%     99.81% |       24004      0.19%    100.00%
system.ruby.L0Cache_Controller.M.Store::total     12827530                      
system.ruby.L0Cache_Controller.M.Inv     |         417     94.77%     94.77% |          23      5.23%    100.00%
system.ruby.L0Cache_Controller.M.Inv::total          440                      
system.ruby.L0Cache_Controller.M.L0_Replacement |       61374     98.76%     98.76% |         771      1.24%    100.00%
system.ruby.L0Cache_Controller.M.L0_Replacement::total        62145                      
system.ruby.L0Cache_Controller.IS.Data   |          20      1.15%      1.15% |        1723     98.85%    100.00%
system.ruby.L0Cache_Controller.IS.Data::total         1743                      
system.ruby.L0Cache_Controller.IS.Data_Exclusive |        2474      2.96%      2.96% |       81152     97.04%    100.00%
system.ruby.L0Cache_Controller.IS.Data_Exclusive::total        83626                      
system.ruby.L0Cache_Controller.IM.Data_Exclusive |       61667     98.73%     98.73% |         791      1.27%    100.00%
system.ruby.L0Cache_Controller.IM.Data_Exclusive::total        62458                      
system.ruby.L0Cache_Controller.SM.Data_Exclusive |          10     90.91%     90.91% |           1      9.09%    100.00%
system.ruby.L0Cache_Controller.SM.Data_Exclusive::total           11                      
system.ruby.L1Cache_Controller.Load      |        2494      2.92%      2.92% |       82875     97.08%    100.00%
system.ruby.L1Cache_Controller.Load::total        85369                      
system.ruby.L1Cache_Controller.Store     |       61677     98.73%     98.73% |         792      1.27%    100.00%
system.ruby.L1Cache_Controller.Store::total        62469                      
system.ruby.L1Cache_Controller.WriteBack |       62115     43.32%     43.32% |       81287     56.68%    100.00%
system.ruby.L1Cache_Controller.WriteBack::total       143402                      
system.ruby.L1Cache_Controller.L0_DataAck |         417     94.77%     94.77% |          23      5.23%    100.00%
system.ruby.L1Cache_Controller.L0_DataAck::total          440                      
system.ruby.L1Cache_Controller.Inv       |           2     16.67%     16.67% |          10     83.33%    100.00%
system.ruby.L1Cache_Controller.Inv::total           12                      
system.ruby.L1Cache_Controller.L0_Invalidate_Own |        2256     63.98%     63.98% |        1270     36.02%    100.00%
system.ruby.L1Cache_Controller.L0_Invalidate_Own::total         3526                      
system.ruby.L1Cache_Controller.L0_Invalidate_Else |         474     95.18%     95.18% |          24      4.82%    100.00%
system.ruby.L1Cache_Controller.L0_Invalidate_Else::total          498                      
system.ruby.L1Cache_Controller.L1_Replacement |       61926     63.93%     63.93% |       34934     36.07%    100.00%
system.ruby.L1Cache_Controller.L1_Replacement::total        96860                      
system.ruby.L1Cache_Controller.Fwd_GETX  |           0      0.00%      0.00% |           1    100.00%    100.00%
system.ruby.L1Cache_Controller.Fwd_GETX::total            1                      
system.ruby.L1Cache_Controller.Fwd_GETS  |        1688     99.65%     99.65% |           6      0.35%    100.00%
system.ruby.L1Cache_Controller.Fwd_GETS::total         1694                      
system.ruby.L1Cache_Controller.Data      |           0      0.00%      0.00% |           1    100.00%    100.00%
system.ruby.L1Cache_Controller.Data::total            1                      
system.ruby.L1Cache_Controller.Data_Exclusive |        2324      6.31%      6.31% |       34485     93.69%    100.00%
system.ruby.L1Cache_Controller.Data_Exclusive::total        36809                      
system.ruby.L1Cache_Controller.DataS_fromL1 |           6      0.35%      0.35% |        1688     99.65%    100.00%
system.ruby.L1Cache_Controller.DataS_fromL1::total         1694                      
system.ruby.L1Cache_Controller.Data_all_Acks |       61646     98.71%     98.71% |         808      1.29%    100.00%
system.ruby.L1Cache_Controller.Data_all_Acks::total        62454                      
system.ruby.L1Cache_Controller.L0_Ack    |         948     60.31%     60.31% |         624     39.69%    100.00%
system.ruby.L1Cache_Controller.L0_Ack::total         1572                      
system.ruby.L1Cache_Controller.Ack       |          10     90.91%     90.91% |           1      9.09%    100.00%
system.ruby.L1Cache_Controller.Ack::total           11                      
system.ruby.L1Cache_Controller.Ack_all   |          10     83.33%     83.33% |           2     16.67%    100.00%
system.ruby.L1Cache_Controller.Ack_all::total           12                      
system.ruby.L1Cache_Controller.WB_Ack    |       61263     63.70%     63.70% |       34908     36.30%    100.00%
system.ruby.L1Cache_Controller.WB_Ack::total        96171                      
system.ruby.L1Cache_Controller.NP.Load   |        2331      6.05%      6.05% |       36193     93.95%    100.00%
system.ruby.L1Cache_Controller.NP.Load::total        38524                      
system.ruby.L1Cache_Controller.NP.Store  |       61645     98.74%     98.74% |         789      1.26%    100.00%
system.ruby.L1Cache_Controller.NP.Store::total        62434                      
system.ruby.L1Cache_Controller.NP.Inv    |           0      0.00%      0.00% |           1    100.00%    100.00%
system.ruby.L1Cache_Controller.NP.Inv::total            1                      
system.ruby.L1Cache_Controller.S.Load    |           1      6.25%      6.25% |          15     93.75%    100.00%
system.ruby.L1Cache_Controller.S.Load::total           16                      
system.ruby.L1Cache_Controller.S.Store   |          10     90.91%     90.91% |           1      9.09%    100.00%
system.ruby.L1Cache_Controller.S.Store::total           11                      
system.ruby.L1Cache_Controller.S.L0_Invalidate_Own |           0      0.00%      0.00% |          26    100.00%    100.00%
system.ruby.L1Cache_Controller.S.L0_Invalidate_Own::total           26                      
system.ruby.L1Cache_Controller.S.L0_Invalidate_Else |           2     25.00%     25.00% |           6     75.00%    100.00%
system.ruby.L1Cache_Controller.S.L0_Invalidate_Else::total            8                      
system.ruby.L1Cache_Controller.SS.Load   |          12    100.00%    100.00% |           0      0.00%    100.00%
system.ruby.L1Cache_Controller.SS.Load::total           12                      
system.ruby.L1Cache_Controller.SS.Inv    |           2     18.18%     18.18% |           9     81.82%    100.00%
system.ruby.L1Cache_Controller.SS.Inv::total           11                      
system.ruby.L1Cache_Controller.SS.L1_Replacement |         663     96.23%     96.23% |          26      3.77%    100.00%
system.ruby.L1Cache_Controller.SS.L1_Replacement::total          689                      
system.ruby.L1Cache_Controller.E.WriteBack |         758      2.18%      2.18% |       34067     97.82%    100.00%
system.ruby.L1Cache_Controller.E.WriteBack::total        34825                      
system.ruby.L1Cache_Controller.E.L0_Invalidate_Own |         990     71.27%     71.27% |         399     28.73%    100.00%
system.ruby.L1Cache_Controller.E.L0_Invalidate_Own::total         1389                      
system.ruby.L1Cache_Controller.E.L0_Invalidate_Else |           5     71.43%     71.43% |           2     28.57%    100.00%
system.ruby.L1Cache_Controller.E.L0_Invalidate_Else::total            7                      
system.ruby.L1Cache_Controller.EE.L1_Replacement |         897     70.08%     70.08% |         383     29.92%    100.00%
system.ruby.L1Cache_Controller.EE.L1_Replacement::total         1280                      
system.ruby.L1Cache_Controller.EE.Fwd_GETS |           5     71.43%     71.43% |           2     28.57%    100.00%
system.ruby.L1Cache_Controller.EE.Fwd_GETS::total            7                      
system.ruby.L1Cache_Controller.M.WriteBack |       61357     56.51%     56.51% |       47220     43.49%    100.00%
system.ruby.L1Cache_Controller.M.WriteBack::total       108577                      
system.ruby.L1Cache_Controller.M.L0_Invalidate_Own |         138     39.66%     39.66% |         210     60.34%    100.00%
system.ruby.L1Cache_Controller.M.L0_Invalidate_Own::total          348                      
system.ruby.L1Cache_Controller.M.L0_Invalidate_Else |         230     98.29%     98.29% |           4      1.71%    100.00%
system.ruby.L1Cache_Controller.M.L0_Invalidate_Else::total          234                      
system.ruby.L1Cache_Controller.MM.Load   |         150      0.32%      0.32% |       46667     99.68%    100.00%
system.ruby.L1Cache_Controller.MM.Load::total        46817                      
system.ruby.L1Cache_Controller.MM.Store  |          22     91.67%     91.67% |           2      8.33%    100.00%
system.ruby.L1Cache_Controller.MM.Store::total           24                      
system.ruby.L1Cache_Controller.MM.L1_Replacement |       60366     63.62%     63.62% |       34525     36.38%    100.00%
system.ruby.L1Cache_Controller.MM.L1_Replacement::total        94891                      
system.ruby.L1Cache_Controller.MM.Fwd_GETX |           0      0.00%      0.00% |           1    100.00%    100.00%
system.ruby.L1Cache_Controller.MM.Fwd_GETX::total            1                      
system.ruby.L1Cache_Controller.MM.Fwd_GETS |        1683     99.76%     99.76% |           4      0.24%    100.00%
system.ruby.L1Cache_Controller.MM.Fwd_GETS::total         1687                      
system.ruby.L1Cache_Controller.IS.Data_Exclusive |        2324      6.31%      6.31% |       34485     93.69%    100.00%
system.ruby.L1Cache_Controller.IS.Data_Exclusive::total        36809                      
system.ruby.L1Cache_Controller.IS.DataS_fromL1 |           6      0.35%      0.35% |        1688     99.65%    100.00%
system.ruby.L1Cache_Controller.IS.DataS_fromL1::total         1694                      
system.ruby.L1Cache_Controller.IS.Data_all_Acks |           1      4.76%      4.76% |          20     95.24%    100.00%
system.ruby.L1Cache_Controller.IS.Data_all_Acks::total           21                      
system.ruby.L1Cache_Controller.IM.Data   |           0      0.00%      0.00% |           1    100.00%    100.00%
system.ruby.L1Cache_Controller.IM.Data::total            1                      
system.ruby.L1Cache_Controller.IM.Data_all_Acks |       61645     98.74%     98.74% |         788      1.26%    100.00%
system.ruby.L1Cache_Controller.IM.Data_all_Acks::total        62433                      
system.ruby.L1Cache_Controller.SM.Ack    |          10     90.91%     90.91% |           1      9.09%    100.00%
system.ruby.L1Cache_Controller.SM.Ack::total           11                      
system.ruby.L1Cache_Controller.SM.Ack_all |          10     83.33%     83.33% |           2     16.67%    100.00%
system.ruby.L1Cache_Controller.SM.Ack_all::total           12                      
system.ruby.L1Cache_Controller.M_I.WB_Ack |       61263     63.70%     63.70% |       34908     36.30%    100.00%
system.ruby.L1Cache_Controller.M_I.WB_Ack::total        96171                      
system.ruby.L1Cache_Controller.S_IL0.L0_Invalidate_Own |           0      0.00%      0.00% |          26    100.00%    100.00%
system.ruby.L1Cache_Controller.S_IL0.L0_Invalidate_Own::total           26                      
system.ruby.L1Cache_Controller.S_IL0.L0_Invalidate_Else |           2     25.00%     25.00% |           6     75.00%    100.00%
system.ruby.L1Cache_Controller.S_IL0.L0_Invalidate_Else::total            8                      
system.ruby.L1Cache_Controller.S_IL0.L0_Ack |           2      5.88%      5.88% |          32     94.12%    100.00%
system.ruby.L1Cache_Controller.S_IL0.L0_Ack::total           34                      
system.ruby.L1Cache_Controller.E_IL0.L0_DataAck |          93     85.32%     85.32% |          16     14.68%    100.00%
system.ruby.L1Cache_Controller.E_IL0.L0_DataAck::total          109                      
system.ruby.L1Cache_Controller.E_IL0.L0_Invalidate_Own |         990     71.27%     71.27% |         399     28.73%    100.00%
system.ruby.L1Cache_Controller.E_IL0.L0_Invalidate_Own::total         1389                      
system.ruby.L1Cache_Controller.E_IL0.L0_Invalidate_Else |           5     71.43%     71.43% |           2     28.57%    100.00%
system.ruby.L1Cache_Controller.E_IL0.L0_Invalidate_Else::total            7                      
system.ruby.L1Cache_Controller.E_IL0.L0_Ack |         902     70.09%     70.09% |         385     29.91%    100.00%
system.ruby.L1Cache_Controller.E_IL0.L0_Ack::total         1287                      
system.ruby.L1Cache_Controller.M_IL0.L0_DataAck |         324     97.89%     97.89% |           7      2.11%    100.00%
system.ruby.L1Cache_Controller.M_IL0.L0_DataAck::total          331                      
system.ruby.L1Cache_Controller.M_IL0.L0_Invalidate_Own |         138     39.66%     39.66% |         210     60.34%    100.00%
system.ruby.L1Cache_Controller.M_IL0.L0_Invalidate_Own::total          348                      
system.ruby.L1Cache_Controller.M_IL0.L0_Invalidate_Else |         230     98.29%     98.29% |           4      1.71%    100.00%
system.ruby.L1Cache_Controller.M_IL0.L0_Invalidate_Else::total          234                      
system.ruby.L1Cache_Controller.M_IL0.L0_Ack |          44     17.53%     17.53% |         207     82.47%    100.00%
system.ruby.L1Cache_Controller.M_IL0.L0_Ack::total          251                      
system.ruby.L2Cache_Controller.L1_GETS          38524      0.00%      0.00%
system.ruby.L2Cache_Controller.L1_GETX          62434      0.00%      0.00%
system.ruby.L2Cache_Controller.L1_UPGRADE           11      0.00%      0.00%
system.ruby.L2Cache_Controller.L1_PUTX          96171      0.00%      0.00%
system.ruby.L2Cache_Controller.Mem_Data         63694      0.00%      0.00%
system.ruby.L2Cache_Controller.WB_Data           1693      0.00%      0.00%
system.ruby.L2Cache_Controller.WB_Data_clean            1      0.00%      0.00%
system.ruby.L2Cache_Controller.Unblock           1694      0.00%      0.00%
system.ruby.L2Cache_Controller.Exclusive_Unblock        99254      0.00%      0.00%
system.ruby.L2Cache_Controller.NP.L1_GETS         1416      0.00%      0.00%
system.ruby.L2Cache_Controller.NP.L1_GETX        62278      0.00%      0.00%
system.ruby.L2Cache_Controller.SS.L1_GETS           19      0.00%      0.00%
system.ruby.L2Cache_Controller.SS.L1_GETX            1      0.00%      0.00%
system.ruby.L2Cache_Controller.SS.L1_UPGRADE           11      0.00%      0.00%
system.ruby.L2Cache_Controller.M.L1_GETS        35394      0.00%      0.00%
system.ruby.L2Cache_Controller.M.L1_GETX          154      0.00%      0.00%
system.ruby.L2Cache_Controller.MT.L1_GETS         1694      0.00%      0.00%
system.ruby.L2Cache_Controller.MT.L1_GETX            1      0.00%      0.00%
system.ruby.L2Cache_Controller.MT.L1_PUTX        96171      0.00%      0.00%
system.ruby.L2Cache_Controller.ISS.L1_GETS            1      0.00%      0.00%
system.ruby.L2Cache_Controller.ISS.Mem_Data         1415      0.00%      0.00%
system.ruby.L2Cache_Controller.IS.Mem_Data            1      0.00%      0.00%
system.ruby.L2Cache_Controller.IM.Mem_Data        62278      0.00%      0.00%
system.ruby.L2Cache_Controller.SS_MB.Exclusive_Unblock           12      0.00%      0.00%
system.ruby.L2Cache_Controller.MT_MB.Exclusive_Unblock        99242      0.00%      0.00%
system.ruby.L2Cache_Controller.MT_IIB.WB_Data         1693      0.00%      0.00%
system.ruby.L2Cache_Controller.MT_IIB.WB_Data_clean            1      0.00%      0.00%
system.ruby.L2Cache_Controller.MT_SB.Unblock         1694      0.00%      0.00%

---------- End Simulation Statistics   ----------
