
---------- Begin Simulation Statistics ----------
sim_seconds                                  3.039426                       # Number of seconds simulated
sim_ticks                                3039426397000                       # Number of ticks simulated
final_tick                               3039426397000                       # Number of ticks from beginning of simulation (restored from checkpoints and never reset)
sim_freq                                 1000000000000                       # Frequency of simulated ticks
host_inst_rate                                 150261                       # Simulator instruction rate (inst/s)
host_op_rate                                   421573                       # Simulator op (including micro ops) rate (op/s)
host_tick_rate                              252292310                       # Simulator tick rate (ticks/s)
host_mem_usage                                1276212                       # Number of bytes of host memory used
host_seconds                                 12047.24                       # Real time elapsed on the host
sim_insts                                  1810234494                       # Number of instructions simulated
sim_ops                                    5078786234                       # Number of ops (including micro ops) simulated
system.voltage_domain.voltage                       1                       # Voltage in Volts
system.clk_domain.clock                          1000                       # Clock period in ticks
system.mem_ctrls.bytes_read::ruby.dir_cntrl0    126107200                       # Number of bytes read from this memory
system.mem_ctrls.bytes_read::total          126107200                       # Number of bytes read from this memory
system.mem_ctrls.bytes_written::ruby.dir_cntrl0    103525376                       # Number of bytes written to this memory
system.mem_ctrls.bytes_written::total       103525376                       # Number of bytes written to this memory
system.mem_ctrls.num_reads::ruby.dir_cntrl0      1970425                       # Number of read requests responded to by this memory
system.mem_ctrls.num_reads::total             1970425                       # Number of read requests responded to by this memory
system.mem_ctrls.num_writes::ruby.dir_cntrl0      1617584                       # Number of write requests responded to by this memory
system.mem_ctrls.num_writes::total            1617584                       # Number of write requests responded to by this memory
system.mem_ctrls.bw_read::ruby.dir_cntrl0     41490460                       # Total read bandwidth from this memory (bytes/s)
system.mem_ctrls.bw_read::total              41490460                       # Total read bandwidth from this memory (bytes/s)
system.mem_ctrls.bw_write::ruby.dir_cntrl0     34060827                       # Write bandwidth from this memory (bytes/s)
system.mem_ctrls.bw_write::total             34060827                       # Write bandwidth from this memory (bytes/s)
system.mem_ctrls.bw_total::ruby.dir_cntrl0     75551287                       # Total bandwidth to/from this memory (bytes/s)
system.mem_ctrls.bw_total::total             75551287                       # Total bandwidth to/from this memory (bytes/s)
system.mem_ctrls.readReqs                     1970425                       # Number of read requests accepted
system.mem_ctrls.writeReqs                    1617584                       # Number of write requests accepted
system.mem_ctrls.readBursts                   1970425                       # Number of DRAM read bursts, including those serviced by the write queue
system.mem_ctrls.writeBursts                  1617584                       # Number of DRAM write bursts, including those merged in the write queue
system.mem_ctrls.bytesReadDRAM              126094400                       # Total number of bytes read from DRAM
system.mem_ctrls.bytesReadWrQ                   12800                       # Total number of bytes read from write queue
system.mem_ctrls.bytesWritten               103523712                       # Total number of bytes written to DRAM
system.mem_ctrls.bytesReadSys               126107200                       # Total read bytes from the system interface side
system.mem_ctrls.bytesWrittenSys            103525376                       # Total written bytes from the system interface side
system.mem_ctrls.servicedByWrQ                    200                       # Number of DRAM read bursts serviced by the write queue
system.mem_ctrls.mergedWrBursts                     0                       # Number of DRAM write bursts merged with an existing one
system.mem_ctrls.neitherReadNorWriteReqs            0                       # Number of requests that are neither read nor write
system.mem_ctrls.perBankRdBursts::0            122371                       # Per bank write bursts
system.mem_ctrls.perBankRdBursts::1            123349                       # Per bank write bursts
system.mem_ctrls.perBankRdBursts::2            122793                       # Per bank write bursts
system.mem_ctrls.perBankRdBursts::3            122093                       # Per bank write bursts
system.mem_ctrls.perBankRdBursts::4            124237                       # Per bank write bursts
system.mem_ctrls.perBankRdBursts::5            123159                       # Per bank write bursts
system.mem_ctrls.perBankRdBursts::6            125674                       # Per bank write bursts
system.mem_ctrls.perBankRdBursts::7            125577                       # Per bank write bursts
system.mem_ctrls.perBankRdBursts::8            121476                       # Per bank write bursts
system.mem_ctrls.perBankRdBursts::9            124953                       # Per bank write bursts
system.mem_ctrls.perBankRdBursts::10           124080                       # Per bank write bursts
system.mem_ctrls.perBankRdBursts::11           123254                       # Per bank write bursts
system.mem_ctrls.perBankRdBursts::12           123177                       # Per bank write bursts
system.mem_ctrls.perBankRdBursts::13           122758                       # Per bank write bursts
system.mem_ctrls.perBankRdBursts::14           121060                       # Per bank write bursts
system.mem_ctrls.perBankRdBursts::15           120214                       # Per bank write bursts
system.mem_ctrls.perBankWrBursts::0            100405                       # Per bank write bursts
system.mem_ctrls.perBankWrBursts::1            101346                       # Per bank write bursts
system.mem_ctrls.perBankWrBursts::2            100501                       # Per bank write bursts
system.mem_ctrls.perBankWrBursts::3             99939                       # Per bank write bursts
system.mem_ctrls.perBankWrBursts::4            102153                       # Per bank write bursts
system.mem_ctrls.perBankWrBursts::5            101199                       # Per bank write bursts
system.mem_ctrls.perBankWrBursts::6            103653                       # Per bank write bursts
system.mem_ctrls.perBankWrBursts::7            103259                       # Per bank write bursts
system.mem_ctrls.perBankWrBursts::8             99341                       # Per bank write bursts
system.mem_ctrls.perBankWrBursts::9            103055                       # Per bank write bursts
system.mem_ctrls.perBankWrBursts::10           102119                       # Per bank write bursts
system.mem_ctrls.perBankWrBursts::11           101352                       # Per bank write bursts
system.mem_ctrls.perBankWrBursts::12           101242                       # Per bank write bursts
system.mem_ctrls.perBankWrBursts::13           100856                       # Per bank write bursts
system.mem_ctrls.perBankWrBursts::14            98918                       # Per bank write bursts
system.mem_ctrls.perBankWrBursts::15            98220                       # Per bank write bursts
system.mem_ctrls.numRdRetry                         0                       # Number of times read queue was full causing retry
system.mem_ctrls.numWrRetry                         0                       # Number of times write queue was full causing retry
system.mem_ctrls.totGap                  3039426316500                       # Total gap between requests
system.mem_ctrls.readPktSize::0                     0                       # Read request sizes (log2)
system.mem_ctrls.readPktSize::1                     0                       # Read request sizes (log2)
system.mem_ctrls.readPktSize::2                     0                       # Read request sizes (log2)
system.mem_ctrls.readPktSize::3                     0                       # Read request sizes (log2)
system.mem_ctrls.readPktSize::4                     0                       # Read request sizes (log2)
system.mem_ctrls.readPktSize::5                     0                       # Read request sizes (log2)
system.mem_ctrls.readPktSize::6               1970425                       # Read request sizes (log2)
system.mem_ctrls.writePktSize::0                    0                       # Write request sizes (log2)
system.mem_ctrls.writePktSize::1                    0                       # Write request sizes (log2)
system.mem_ctrls.writePktSize::2                    0                       # Write request sizes (log2)
system.mem_ctrls.writePktSize::3                    0                       # Write request sizes (log2)
system.mem_ctrls.writePktSize::4                    0                       # Write request sizes (log2)
system.mem_ctrls.writePktSize::5                    0                       # Write request sizes (log2)
system.mem_ctrls.writePktSize::6              1617584                       # Write request sizes (log2)
system.mem_ctrls.rdQLenPdf::0                 1682353                       # What read queue length does an incoming req see
system.mem_ctrls.rdQLenPdf::1                  111267                       # What read queue length does an incoming req see
system.mem_ctrls.rdQLenPdf::2                   70095                       # What read queue length does an incoming req see
system.mem_ctrls.rdQLenPdf::3                   45412                       # What read queue length does an incoming req see
system.mem_ctrls.rdQLenPdf::4                   25506                       # What read queue length does an incoming req see
system.mem_ctrls.rdQLenPdf::5                   16101                       # What read queue length does an incoming req see
system.mem_ctrls.rdQLenPdf::6                   11323                       # What read queue length does an incoming req see
system.mem_ctrls.rdQLenPdf::7                    8168                       # What read queue length does an incoming req see
system.mem_ctrls.rdQLenPdf::8                       0                       # What read queue length does an incoming req see
system.mem_ctrls.rdQLenPdf::9                       0                       # What read queue length does an incoming req see
system.mem_ctrls.rdQLenPdf::10                      0                       # What read queue length does an incoming req see
system.mem_ctrls.rdQLenPdf::11                      0                       # What read queue length does an incoming req see
system.mem_ctrls.rdQLenPdf::12                      0                       # What read queue length does an incoming req see
system.mem_ctrls.rdQLenPdf::13                      0                       # What read queue length does an incoming req see
system.mem_ctrls.rdQLenPdf::14                      0                       # What read queue length does an incoming req see
system.mem_ctrls.rdQLenPdf::15                      0                       # What read queue length does an incoming req see
system.mem_ctrls.rdQLenPdf::16                      0                       # What read queue length does an incoming req see
system.mem_ctrls.rdQLenPdf::17                      0                       # What read queue length does an incoming req see
system.mem_ctrls.rdQLenPdf::18                      0                       # What read queue length does an incoming req see
system.mem_ctrls.rdQLenPdf::19                      0                       # What read queue length does an incoming req see
system.mem_ctrls.rdQLenPdf::20                      0                       # What read queue length does an incoming req see
system.mem_ctrls.rdQLenPdf::21                      0                       # What read queue length does an incoming req see
system.mem_ctrls.rdQLenPdf::22                      0                       # What read queue length does an incoming req see
system.mem_ctrls.rdQLenPdf::23                      0                       # What read queue length does an incoming req see
system.mem_ctrls.rdQLenPdf::24                      0                       # What read queue length does an incoming req see
system.mem_ctrls.rdQLenPdf::25                      0                       # What read queue length does an incoming req see
system.mem_ctrls.rdQLenPdf::26                      0                       # What read queue length does an incoming req see
system.mem_ctrls.rdQLenPdf::27                      0                       # What read queue length does an incoming req see
system.mem_ctrls.rdQLenPdf::28                      0                       # What read queue length does an incoming req see
system.mem_ctrls.rdQLenPdf::29                      0                       # What read queue length does an incoming req see
system.mem_ctrls.rdQLenPdf::30                      0                       # What read queue length does an incoming req see
system.mem_ctrls.rdQLenPdf::31                      0                       # What read queue length does an incoming req see
system.mem_ctrls.wrQLenPdf::0                       1                       # What write queue length does an incoming req see
system.mem_ctrls.wrQLenPdf::1                       1                       # What write queue length does an incoming req see
system.mem_ctrls.wrQLenPdf::2                       1                       # What write queue length does an incoming req see
system.mem_ctrls.wrQLenPdf::3                       1                       # What write queue length does an incoming req see
system.mem_ctrls.wrQLenPdf::4                       1                       # What write queue length does an incoming req see
system.mem_ctrls.wrQLenPdf::5                       1                       # What write queue length does an incoming req see
system.mem_ctrls.wrQLenPdf::6                       1                       # What write queue length does an incoming req see
system.mem_ctrls.wrQLenPdf::7                       1                       # What write queue length does an incoming req see
system.mem_ctrls.wrQLenPdf::8                       1                       # What write queue length does an incoming req see
system.mem_ctrls.wrQLenPdf::9                       1                       # What write queue length does an incoming req see
system.mem_ctrls.wrQLenPdf::10                      1                       # What write queue length does an incoming req see
system.mem_ctrls.wrQLenPdf::11                      1                       # What write queue length does an incoming req see
system.mem_ctrls.wrQLenPdf::12                      1                       # What write queue length does an incoming req see
system.mem_ctrls.wrQLenPdf::13                      1                       # What write queue length does an incoming req see
system.mem_ctrls.wrQLenPdf::14                      1                       # What write queue length does an incoming req see
system.mem_ctrls.wrQLenPdf::15                   3697                       # What write queue length does an incoming req see
system.mem_ctrls.wrQLenPdf::16                   4049                       # What write queue length does an incoming req see
system.mem_ctrls.wrQLenPdf::17                  77691                       # What write queue length does an incoming req see
system.mem_ctrls.wrQLenPdf::18                  84206                       # What write queue length does an incoming req see
system.mem_ctrls.wrQLenPdf::19                  89412                       # What write queue length does an incoming req see
system.mem_ctrls.wrQLenPdf::20                  93553                       # What write queue length does an incoming req see
system.mem_ctrls.wrQLenPdf::21                  97063                       # What write queue length does an incoming req see
system.mem_ctrls.wrQLenPdf::22                 100292                       # What write queue length does an incoming req see
system.mem_ctrls.wrQLenPdf::23                 103269                       # What write queue length does an incoming req see
system.mem_ctrls.wrQLenPdf::24                 106368                       # What write queue length does an incoming req see
system.mem_ctrls.wrQLenPdf::25                 107585                       # What write queue length does an incoming req see
system.mem_ctrls.wrQLenPdf::26                 108275                       # What write queue length does an incoming req see
system.mem_ctrls.wrQLenPdf::27                 106772                       # What write queue length does an incoming req see
system.mem_ctrls.wrQLenPdf::28                 105002                       # What write queue length does an incoming req see
system.mem_ctrls.wrQLenPdf::29                 105198                       # What write queue length does an incoming req see
system.mem_ctrls.wrQLenPdf::30                 107228                       # What write queue length does an incoming req see
system.mem_ctrls.wrQLenPdf::31                 109403                       # What write queue length does an incoming req see
system.mem_ctrls.wrQLenPdf::32                 105808                       # What write queue length does an incoming req see
system.mem_ctrls.wrQLenPdf::33                   1258                       # What write queue length does an incoming req see
system.mem_ctrls.wrQLenPdf::34                    503                       # What write queue length does an incoming req see
system.mem_ctrls.wrQLenPdf::35                    330                       # What write queue length does an incoming req see
system.mem_ctrls.wrQLenPdf::36                    220                       # What write queue length does an incoming req see
system.mem_ctrls.wrQLenPdf::37                    163                       # What write queue length does an incoming req see
system.mem_ctrls.wrQLenPdf::38                    113                       # What write queue length does an incoming req see
system.mem_ctrls.wrQLenPdf::39                     72                       # What write queue length does an incoming req see
system.mem_ctrls.wrQLenPdf::40                      5                       # What write queue length does an incoming req see
system.mem_ctrls.wrQLenPdf::41                      5                       # What write queue length does an incoming req see
system.mem_ctrls.wrQLenPdf::42                      2                       # What write queue length does an incoming req see
system.mem_ctrls.wrQLenPdf::43                      2                       # What write queue length does an incoming req see
system.mem_ctrls.wrQLenPdf::44                      2                       # What write queue length does an incoming req see
system.mem_ctrls.wrQLenPdf::45                      2                       # What write queue length does an incoming req see
system.mem_ctrls.wrQLenPdf::46                      3                       # What write queue length does an incoming req see
system.mem_ctrls.wrQLenPdf::47                      2                       # What write queue length does an incoming req see
system.mem_ctrls.wrQLenPdf::48                      2                       # What write queue length does an incoming req see
system.mem_ctrls.wrQLenPdf::49                      3                       # What write queue length does an incoming req see
system.mem_ctrls.wrQLenPdf::50                      3                       # What write queue length does an incoming req see
system.mem_ctrls.wrQLenPdf::51                      2                       # What write queue length does an incoming req see
system.mem_ctrls.wrQLenPdf::52                      2                       # What write queue length does an incoming req see
system.mem_ctrls.wrQLenPdf::53                      2                       # What write queue length does an incoming req see
system.mem_ctrls.wrQLenPdf::54                      2                       # What write queue length does an incoming req see
system.mem_ctrls.wrQLenPdf::55                      0                       # What write queue length does an incoming req see
system.mem_ctrls.wrQLenPdf::56                      0                       # What write queue length does an incoming req see
system.mem_ctrls.wrQLenPdf::57                      0                       # What write queue length does an incoming req see
system.mem_ctrls.wrQLenPdf::58                      0                       # What write queue length does an incoming req see
system.mem_ctrls.wrQLenPdf::59                      0                       # What write queue length does an incoming req see
system.mem_ctrls.wrQLenPdf::60                      0                       # What write queue length does an incoming req see
system.mem_ctrls.wrQLenPdf::61                      0                       # What write queue length does an incoming req see
system.mem_ctrls.wrQLenPdf::62                      0                       # What write queue length does an incoming req see
system.mem_ctrls.wrQLenPdf::63                      0                       # What write queue length does an incoming req see
system.mem_ctrls.bytesPerActivate::samples       648764                       # Bytes accessed per row activation
system.mem_ctrls.bytesPerActivate::mean    353.930169                       # Bytes accessed per row activation
system.mem_ctrls.bytesPerActivate::gmean   234.023897                       # Bytes accessed per row activation
system.mem_ctrls.bytesPerActivate::stdev   307.591177                       # Bytes accessed per row activation
system.mem_ctrls.bytesPerActivate::0-127       165123     25.45%     25.45% # Bytes accessed per row activation
system.mem_ctrls.bytesPerActivate::128-255       111522     17.19%     42.64% # Bytes accessed per row activation
system.mem_ctrls.bytesPerActivate::256-383       140705     21.69%     64.33% # Bytes accessed per row activation
system.mem_ctrls.bytesPerActivate::384-511        57340      8.84%     73.17% # Bytes accessed per row activation
system.mem_ctrls.bytesPerActivate::512-639        45512      7.02%     80.18% # Bytes accessed per row activation
system.mem_ctrls.bytesPerActivate::640-767        31201      4.81%     84.99% # Bytes accessed per row activation
system.mem_ctrls.bytesPerActivate::768-895        20185      3.11%     88.10% # Bytes accessed per row activation
system.mem_ctrls.bytesPerActivate::896-1023        14468      2.23%     90.33% # Bytes accessed per row activation
system.mem_ctrls.bytesPerActivate::1024-1151        62708      9.67%    100.00% # Bytes accessed per row activation
system.mem_ctrls.bytesPerActivate::total       648764                       # Bytes accessed per row activation
system.mem_ctrls.rdPerTurnAround::samples       100559                       # Reads before turning the bus around for writes
system.mem_ctrls.rdPerTurnAround::mean      19.592617                       # Reads before turning the bus around for writes
system.mem_ctrls.rdPerTurnAround::gmean     16.241282                       # Reads before turning the bus around for writes
system.mem_ctrls.rdPerTurnAround::stdev    970.710274                       # Reads before turning the bus around for writes
system.mem_ctrls.rdPerTurnAround::0-16383       100558    100.00%    100.00% # Reads before turning the bus around for writes
system.mem_ctrls.rdPerTurnAround::294912-311295            1      0.00%    100.00% # Reads before turning the bus around for writes
system.mem_ctrls.rdPerTurnAround::total        100559                       # Reads before turning the bus around for writes
system.mem_ctrls.wrPerTurnAround::samples       100559                       # Writes before turning the bus around for reads
system.mem_ctrls.wrPerTurnAround::mean      16.085661                       # Writes before turning the bus around for reads
system.mem_ctrls.wrPerTurnAround::gmean     16.080291                       # Writes before turning the bus around for reads
system.mem_ctrls.wrPerTurnAround::stdev      0.436507                       # Writes before turning the bus around for reads
system.mem_ctrls.wrPerTurnAround::16            96481     95.94%     95.94% # Writes before turning the bus around for reads
system.mem_ctrls.wrPerTurnAround::17              102      0.10%     96.05% # Writes before turning the bus around for reads
system.mem_ctrls.wrPerTurnAround::18             3696      3.68%     99.72% # Writes before turning the bus around for reads
system.mem_ctrls.wrPerTurnAround::19              150      0.15%     99.87% # Writes before turning the bus around for reads
system.mem_ctrls.wrPerTurnAround::20               54      0.05%     99.92% # Writes before turning the bus around for reads
system.mem_ctrls.wrPerTurnAround::21               36      0.04%     99.96% # Writes before turning the bus around for reads
system.mem_ctrls.wrPerTurnAround::22               13      0.01%     99.97% # Writes before turning the bus around for reads
system.mem_ctrls.wrPerTurnAround::23               21      0.02%     99.99% # Writes before turning the bus around for reads
system.mem_ctrls.wrPerTurnAround::24                5      0.00%    100.00% # Writes before turning the bus around for reads
system.mem_ctrls.wrPerTurnAround::25                1      0.00%    100.00% # Writes before turning the bus around for reads
system.mem_ctrls.wrPerTurnAround::total        100559                       # Writes before turning the bus around for reads
system.mem_ctrls.totQLat                  41659261497                       # Total ticks spent queuing
system.mem_ctrls.totMemAccLat             78600980247                       # Total ticks spent from burst creation until serviced by the DRAM
system.mem_ctrls.totBusLat                 9851125000                       # Total ticks spent in databus transfers
system.mem_ctrls.avgQLat                     21144.42                       # Average queueing delay per DRAM burst
system.mem_ctrls.avgBusLat                    5000.00                       # Average bus latency per DRAM burst
system.mem_ctrls.avgMemAccLat                39894.42                       # Average memory access latency per DRAM burst
system.mem_ctrls.avgRdBW                        41.49                       # Average DRAM read bandwidth in MiByte/s
system.mem_ctrls.avgWrBW                        34.06                       # Average achieved write bandwidth in MiByte/s
system.mem_ctrls.avgRdBWSys                     41.49                       # Average system read bandwidth in MiByte/s
system.mem_ctrls.avgWrBWSys                     34.06                       # Average system write bandwidth in MiByte/s
system.mem_ctrls.peakBW                      12800.00                       # Theoretical peak bandwidth in MiByte/s
system.mem_ctrls.busUtil                         0.59                       # Data bus utilization in percentage
system.mem_ctrls.busUtilRead                     0.32                       # Data bus utilization in percentage for reads
system.mem_ctrls.busUtilWrite                    0.27                       # Data bus utilization in percentage for writes
system.mem_ctrls.avgRdQLen                       1.01                       # Average read queue length when enqueuing
system.mem_ctrls.avgWrQLen                      22.26                       # Average write queue length when enqueuing
system.mem_ctrls.readRowHits                  1512803                       # Number of row buffer hits during reads
system.mem_ctrls.writeRowHits                 1426209                       # Number of row buffer hits during writes
system.mem_ctrls.readRowHitRate                 76.78                       # Row buffer hit rate for reads
system.mem_ctrls.writeRowHitRate                88.17                       # Row buffer hit rate for writes
system.mem_ctrls.avgGap                     847106.66                       # Average gap between requests
system.mem_ctrls.pageHitRate                    81.92                       # Row buffer hit rate, read and write combined
system.mem_ctrls_0.actEnergy               2496924360                       # Energy for activate commands per rank (pJ)
system.mem_ctrls_0.preEnergy               1362409125                       # Energy for precharge commands per rank (pJ)
system.mem_ctrls_0.readEnergy              7716165600                       # Energy for read commands per rank (pJ)
system.mem_ctrls_0.writeEnergy             5264656560                       # Energy for write commands per rank (pJ)
system.mem_ctrls_0.refreshEnergy         198520464480                       # Energy for refresh commands per rank (pJ)
system.mem_ctrls_0.actBackEnergy         546771503070                       # Energy for active background per rank (pJ)
system.mem_ctrls_0.preBackEnergy         1344031036500                       # Energy for precharge background per rank (pJ)
system.mem_ctrls_0.totalEnergy           2106163159695                       # Total energy per rank (pJ)
system.mem_ctrls_0.averagePower            692.947835                       # Core power per rank (mW)
system.mem_ctrls_0.memoryStateTime::IDLE 2232350231007                       # Time in different power states
system.mem_ctrls_0.memoryStateTime::REF  101493080000                       # Time in different power states
system.mem_ctrls_0.memoryStateTime::PRE_PDN            0                       # Time in different power states
system.mem_ctrls_0.memoryStateTime::ACT  705581972243                       # Time in different power states
system.mem_ctrls_0.memoryStateTime::ACT_PDN            0                       # Time in different power states
system.mem_ctrls_1.actEnergy               2407708800                       # Energy for activate commands per rank (pJ)
system.mem_ctrls_1.preEnergy               1313730000                       # Energy for precharge commands per rank (pJ)
system.mem_ctrls_1.readEnergy              7651503600                       # Energy for read commands per rank (pJ)
system.mem_ctrls_1.writeEnergy             5217048000                       # Energy for write commands per rank (pJ)
system.mem_ctrls_1.refreshEnergy         198520464480                       # Energy for refresh commands per rank (pJ)
system.mem_ctrls_1.actBackEnergy         545587807725                       # Energy for active background per rank (pJ)
system.mem_ctrls_1.preBackEnergy         1345069383000                       # Energy for precharge background per rank (pJ)
system.mem_ctrls_1.totalEnergy           2105767645605                       # Total energy per rank (pJ)
system.mem_ctrls_1.averagePower            692.817700                       # Core power per rank (mW)
system.mem_ctrls_1.memoryStateTime::IDLE 2234092284759                       # Time in different power states
system.mem_ctrls_1.memoryStateTime::REF  101493080000                       # Time in different power states
system.mem_ctrls_1.memoryStateTime::PRE_PDN            0                       # Time in different power states
system.mem_ctrls_1.memoryStateTime::ACT  703839949741                       # Time in different power states
system.mem_ctrls_1.memoryStateTime::ACT_PDN            0                       # Time in different power states
system.cpu_voltage_domain.voltage                   1                       # Voltage in Volts
system.cpu_clk_domain.clock                       500                       # Clock period in ticks
system.cpu0.apic_clk_domain.clock                8000                       # Clock period in ticks
system.cpu0.workload.num_syscalls                 272                       # Number of system calls
system.cpu0.numCycles                      6078852794                       # number of cpu cycles simulated
system.cpu0.numWorkItemsStarted                     0                       # number of work items this cpu started
system.cpu0.numWorkItemsCompleted                   0                       # number of work items this cpu completed
system.cpu0.committedInsts                 1680013526                       # Number of instructions committed
system.cpu0.committedOps                   4819812634                       # Number of ops (including micro ops) committed
system.cpu0.num_int_alu_accesses           4545912636                       # Number of integer alu accesses
system.cpu0.num_fp_alu_accesses             116281189                       # Number of float alu accesses
system.cpu0.num_func_calls                  163074936                       # number of times a function call or return occured
system.cpu0.num_conditional_control_insts    370695341                       # number of instructions that are conditional controls
system.cpu0.num_int_insts                  4545912636                       # number of integer instructions
system.cpu0.num_fp_insts                    116281189                       # number of float instructions
system.cpu0.num_int_register_reads         9573361015                       # number of times the integer registers were read
system.cpu0.num_int_register_writes        4535392136                       # number of times the integer registers were written
system.cpu0.num_fp_register_reads           186868429                       # number of times the floating registers were read
system.cpu0.num_fp_register_writes           91388808                       # number of times the floating registers were written
system.cpu0.num_cc_register_reads          3847768557                       # number of times the CC registers were read
system.cpu0.num_cc_register_writes         1443575659                       # number of times the CC registers were written
system.cpu0.num_mem_refs                    728866824                       # number of memory refs
system.cpu0.num_load_insts                  442633597                       # Number of load instructions
system.cpu0.num_store_insts                 286233227                       # Number of store instructions
system.cpu0.num_idle_cycles                  0.002000                       # Number of idle cycles
system.cpu0.num_busy_cycles              6078852793.998000                       # Number of busy cycles
system.cpu0.not_idle_fraction                1.000000                       # Percentage of non-idle cycles
system.cpu0.idle_fraction                    0.000000                       # Percentage of idle cycles
system.cpu0.Branches                        611948305                       # Number of branches fetched
system.cpu0.op_class::No_OpClass             94599445      1.96%      1.96% # Class of executed instruction
system.cpu0.op_class::IntAlu               3497660535     72.57%     74.53% # Class of executed instruction
system.cpu0.op_class::IntMult                     490      0.00%     74.53% # Class of executed instruction
system.cpu0.op_class::IntDiv                407297348      8.45%     82.98% # Class of executed instruction
system.cpu0.op_class::FloatAdd               91387992      1.90%     84.88% # Class of executed instruction
system.cpu0.op_class::FloatCmp                      0      0.00%     84.88% # Class of executed instruction
system.cpu0.op_class::FloatCvt                      0      0.00%     84.88% # Class of executed instruction
system.cpu0.op_class::FloatMult                     0      0.00%     84.88% # Class of executed instruction
system.cpu0.op_class::FloatDiv                      0      0.00%     84.88% # Class of executed instruction
system.cpu0.op_class::FloatSqrt                     0      0.00%     84.88% # Class of executed instruction
system.cpu0.op_class::SimdAdd                       0      0.00%     84.88% # Class of executed instruction
system.cpu0.op_class::SimdAddAcc                    0      0.00%     84.88% # Class of executed instruction
system.cpu0.op_class::SimdAlu                       0      0.00%     84.88% # Class of executed instruction
system.cpu0.op_class::SimdCmp                       0      0.00%     84.88% # Class of executed instruction
system.cpu0.op_class::SimdCvt                       0      0.00%     84.88% # Class of executed instruction
system.cpu0.op_class::SimdMisc                      0      0.00%     84.88% # Class of executed instruction
system.cpu0.op_class::SimdMult                      0      0.00%     84.88% # Class of executed instruction
system.cpu0.op_class::SimdMultAcc                   0      0.00%     84.88% # Class of executed instruction
system.cpu0.op_class::SimdShift                     0      0.00%     84.88% # Class of executed instruction
system.cpu0.op_class::SimdShiftAcc                  0      0.00%     84.88% # Class of executed instruction
system.cpu0.op_class::SimdSqrt                      0      0.00%     84.88% # Class of executed instruction
system.cpu0.op_class::SimdFloatAdd                  0      0.00%     84.88% # Class of executed instruction
system.cpu0.op_class::SimdFloatAlu                  0      0.00%     84.88% # Class of executed instruction
system.cpu0.op_class::SimdFloatCmp                  0      0.00%     84.88% # Class of executed instruction
system.cpu0.op_class::SimdFloatCvt                  0      0.00%     84.88% # Class of executed instruction
system.cpu0.op_class::SimdFloatDiv                  0      0.00%     84.88% # Class of executed instruction
system.cpu0.op_class::SimdFloatMisc                 0      0.00%     84.88% # Class of executed instruction
system.cpu0.op_class::SimdFloatMult                 0      0.00%     84.88% # Class of executed instruction
system.cpu0.op_class::SimdFloatMultAcc              0      0.00%     84.88% # Class of executed instruction
system.cpu0.op_class::SimdFloatSqrt                 0      0.00%     84.88% # Class of executed instruction
system.cpu0.op_class::MemRead               442633597      9.18%     94.06% # Class of executed instruction
system.cpu0.op_class::MemWrite              286233227      5.94%    100.00% # Class of executed instruction
system.cpu0.op_class::IprAccess                     0      0.00%    100.00% # Class of executed instruction
system.cpu0.op_class::InstPrefetch                  0      0.00%    100.00% # Class of executed instruction
system.cpu0.op_class::total                4819812634                       # Class of executed instruction
system.cpu1.apic_clk_domain.clock                8000                       # Clock period in ticks
system.cpu1.numCycles                      6078459998                       # number of cpu cycles simulated
system.cpu1.numWorkItemsStarted                     0                       # number of work items this cpu started
system.cpu1.numWorkItemsCompleted                   0                       # number of work items this cpu completed
system.cpu1.committedInsts                   16277621                       # Number of instructions committed
system.cpu1.committedOps                     32371700                       # Number of ops (including micro ops) committed
system.cpu1.num_int_alu_accesses             25372140                       # Number of integer alu accesses
system.cpu1.num_fp_alu_accesses              17579765                       # Number of float alu accesses
system.cpu1.num_func_calls                      40491                       # number of times a function call or return occured
system.cpu1.num_conditional_control_insts      1783388                       # number of instructions that are conditional controls
system.cpu1.num_int_insts                    25372140                       # number of integer instructions
system.cpu1.num_fp_insts                     17579765                       # number of float instructions
system.cpu1.num_int_register_reads           49037197                       # number of times the integer registers were read
system.cpu1.num_int_register_writes          12986626                       # number of times the integer registers were written
system.cpu1.num_fp_register_reads            24437779                       # number of times the floating registers were read
system.cpu1.num_fp_register_writes           14019328                       # number of times the floating registers were written
system.cpu1.num_cc_register_reads            10720595                       # number of times the CC registers were read
system.cpu1.num_cc_register_writes           10714264                       # number of times the CC registers were written
system.cpu1.num_mem_refs                     10684687                       # number of memory refs
system.cpu1.num_load_insts                    7103938                       # Number of load instructions
system.cpu1.num_store_insts                   3580749                       # Number of store instructions
system.cpu1.num_idle_cycles              5988223152.192815                       # Number of idle cycles
system.cpu1.num_busy_cycles              90236845.807185                       # Number of busy cycles
system.cpu1.not_idle_fraction                0.014845                       # Percentage of non-idle cycles
system.cpu1.idle_fraction                    0.985155                       # Percentage of idle cycles
system.cpu1.Branches                          1845679                       # Number of branches fetched
system.cpu1.op_class::No_OpClass                    2      0.00%      0.00% # Class of executed instruction
system.cpu1.op_class::IntAlu                 14626767     45.18%     45.18% # Class of executed instruction
system.cpu1.op_class::IntMult                   60671      0.19%     45.37% # Class of executed instruction
system.cpu1.op_class::IntDiv                       14      0.00%     45.37% # Class of executed instruction
system.cpu1.op_class::FloatAdd                6999559     21.62%     66.99% # Class of executed instruction
system.cpu1.op_class::FloatCmp                      0      0.00%     66.99% # Class of executed instruction
system.cpu1.op_class::FloatCvt                      0      0.00%     66.99% # Class of executed instruction
system.cpu1.op_class::FloatMult                     0      0.00%     66.99% # Class of executed instruction
system.cpu1.op_class::FloatDiv                      0      0.00%     66.99% # Class of executed instruction
system.cpu1.op_class::FloatSqrt                     0      0.00%     66.99% # Class of executed instruction
system.cpu1.op_class::SimdAdd                       0      0.00%     66.99% # Class of executed instruction
system.cpu1.op_class::SimdAddAcc                    0      0.00%     66.99% # Class of executed instruction
system.cpu1.op_class::SimdAlu                       0      0.00%     66.99% # Class of executed instruction
system.cpu1.op_class::SimdCmp                       0      0.00%     66.99% # Class of executed instruction
system.cpu1.op_class::SimdCvt                       0      0.00%     66.99% # Class of executed instruction
system.cpu1.op_class::SimdMisc                      0      0.00%     66.99% # Class of executed instruction
system.cpu1.op_class::SimdMult                      0      0.00%     66.99% # Class of executed instruction
system.cpu1.op_class::SimdMultAcc                   0      0.00%     66.99% # Class of executed instruction
system.cpu1.op_class::SimdShift                     0      0.00%     66.99% # Class of executed instruction
system.cpu1.op_class::SimdShiftAcc                  0      0.00%     66.99% # Class of executed instruction
system.cpu1.op_class::SimdSqrt                      0      0.00%     66.99% # Class of executed instruction
system.cpu1.op_class::SimdFloatAdd                  0      0.00%     66.99% # Class of executed instruction
system.cpu1.op_class::SimdFloatAlu                  0      0.00%     66.99% # Class of executed instruction
system.cpu1.op_class::SimdFloatCmp                  0      0.00%     66.99% # Class of executed instruction
system.cpu1.op_class::SimdFloatCvt                  0      0.00%     66.99% # Class of executed instruction
system.cpu1.op_class::SimdFloatDiv                  0      0.00%     66.99% # Class of executed instruction
system.cpu1.op_class::SimdFloatMisc                 0      0.00%     66.99% # Class of executed instruction
system.cpu1.op_class::SimdFloatMult                 0      0.00%     66.99% # Class of executed instruction
system.cpu1.op_class::SimdFloatMultAcc              0      0.00%     66.99% # Class of executed instruction
system.cpu1.op_class::SimdFloatSqrt                 0      0.00%     66.99% # Class of executed instruction
system.cpu1.op_class::MemRead                 7103938     21.94%     88.94% # Class of executed instruction
system.cpu1.op_class::MemWrite                3580749     11.06%    100.00% # Class of executed instruction
system.cpu1.op_class::IprAccess                     0      0.00%    100.00% # Class of executed instruction
system.cpu1.op_class::InstPrefetch                  0      0.00%    100.00% # Class of executed instruction
system.cpu1.op_class::total                  32371700                       # Class of executed instruction
system.cpu2.apic_clk_domain.clock                8000                       # Clock period in ticks
system.cpu2.numCycles                      6074844860                       # number of cpu cycles simulated
system.cpu2.numWorkItemsStarted                     0                       # number of work items this cpu started
system.cpu2.numWorkItemsCompleted                   0                       # number of work items this cpu completed
system.cpu2.committedInsts                   16277621                       # Number of instructions committed
system.cpu2.committedOps                     32371700                       # Number of ops (including micro ops) committed
system.cpu2.num_int_alu_accesses             25372140                       # Number of integer alu accesses
system.cpu2.num_fp_alu_accesses              17579765                       # Number of float alu accesses
system.cpu2.num_func_calls                      40491                       # number of times a function call or return occured
system.cpu2.num_conditional_control_insts      1783388                       # number of instructions that are conditional controls
system.cpu2.num_int_insts                    25372140                       # number of integer instructions
system.cpu2.num_fp_insts                     17579765                       # number of float instructions
system.cpu2.num_int_register_reads           49037197                       # number of times the integer registers were read
system.cpu2.num_int_register_writes          12986626                       # number of times the integer registers were written
system.cpu2.num_fp_register_reads            24437779                       # number of times the floating registers were read
system.cpu2.num_fp_register_writes           14019328                       # number of times the floating registers were written
system.cpu2.num_cc_register_reads            10720595                       # number of times the CC registers were read
system.cpu2.num_cc_register_writes           10714264                       # number of times the CC registers were written
system.cpu2.num_mem_refs                     10684687                       # number of memory refs
system.cpu2.num_load_insts                    7103938                       # Number of load instructions
system.cpu2.num_store_insts                   3580749                       # Number of store instructions
system.cpu2.num_idle_cycles              5988275176.134214                       # Number of idle cycles
system.cpu2.num_busy_cycles              86569683.865786                       # Number of busy cycles
system.cpu2.not_idle_fraction                0.014251                       # Percentage of non-idle cycles
system.cpu2.idle_fraction                    0.985749                       # Percentage of idle cycles
system.cpu2.Branches                          1845679                       # Number of branches fetched
system.cpu2.op_class::No_OpClass                    2      0.00%      0.00% # Class of executed instruction
system.cpu2.op_class::IntAlu                 14626767     45.18%     45.18% # Class of executed instruction
system.cpu2.op_class::IntMult                   60671      0.19%     45.37% # Class of executed instruction
system.cpu2.op_class::IntDiv                       14      0.00%     45.37% # Class of executed instruction
system.cpu2.op_class::FloatAdd                6999559     21.62%     66.99% # Class of executed instruction
system.cpu2.op_class::FloatCmp                      0      0.00%     66.99% # Class of executed instruction
system.cpu2.op_class::FloatCvt                      0      0.00%     66.99% # Class of executed instruction
system.cpu2.op_class::FloatMult                     0      0.00%     66.99% # Class of executed instruction
system.cpu2.op_class::FloatDiv                      0      0.00%     66.99% # Class of executed instruction
system.cpu2.op_class::FloatSqrt                     0      0.00%     66.99% # Class of executed instruction
system.cpu2.op_class::SimdAdd                       0      0.00%     66.99% # Class of executed instruction
system.cpu2.op_class::SimdAddAcc                    0      0.00%     66.99% # Class of executed instruction
system.cpu2.op_class::SimdAlu                       0      0.00%     66.99% # Class of executed instruction
system.cpu2.op_class::SimdCmp                       0      0.00%     66.99% # Class of executed instruction
system.cpu2.op_class::SimdCvt                       0      0.00%     66.99% # Class of executed instruction
system.cpu2.op_class::SimdMisc                      0      0.00%     66.99% # Class of executed instruction
system.cpu2.op_class::SimdMult                      0      0.00%     66.99% # Class of executed instruction
system.cpu2.op_class::SimdMultAcc                   0      0.00%     66.99% # Class of executed instruction
system.cpu2.op_class::SimdShift                     0      0.00%     66.99% # Class of executed instruction
system.cpu2.op_class::SimdShiftAcc                  0      0.00%     66.99% # Class of executed instruction
system.cpu2.op_class::SimdSqrt                      0      0.00%     66.99% # Class of executed instruction
system.cpu2.op_class::SimdFloatAdd                  0      0.00%     66.99% # Class of executed instruction
system.cpu2.op_class::SimdFloatAlu                  0      0.00%     66.99% # Class of executed instruction
system.cpu2.op_class::SimdFloatCmp                  0      0.00%     66.99% # Class of executed instruction
system.cpu2.op_class::SimdFloatCvt                  0      0.00%     66.99% # Class of executed instruction
system.cpu2.op_class::SimdFloatDiv                  0      0.00%     66.99% # Class of executed instruction
system.cpu2.op_class::SimdFloatMisc                 0      0.00%     66.99% # Class of executed instruction
system.cpu2.op_class::SimdFloatMult                 0      0.00%     66.99% # Class of executed instruction
system.cpu2.op_class::SimdFloatMultAcc              0      0.00%     66.99% # Class of executed instruction
system.cpu2.op_class::SimdFloatSqrt                 0      0.00%     66.99% # Class of executed instruction
system.cpu2.op_class::MemRead                 7103938     21.94%     88.94% # Class of executed instruction
system.cpu2.op_class::MemWrite                3580749     11.06%    100.00% # Class of executed instruction
system.cpu2.op_class::IprAccess                     0      0.00%    100.00% # Class of executed instruction
system.cpu2.op_class::InstPrefetch                  0      0.00%    100.00% # Class of executed instruction
system.cpu2.op_class::total                  32371700                       # Class of executed instruction
system.cpu3.apic_clk_domain.clock                8000                       # Clock period in ticks
system.cpu3.numCycles                      6074897521                       # number of cpu cycles simulated
system.cpu3.numWorkItemsStarted                     0                       # number of work items this cpu started
system.cpu3.numWorkItemsCompleted                   0                       # number of work items this cpu completed
system.cpu3.committedInsts                   16277621                       # Number of instructions committed
system.cpu3.committedOps                     32371700                       # Number of ops (including micro ops) committed
system.cpu3.num_int_alu_accesses             25372140                       # Number of integer alu accesses
system.cpu3.num_fp_alu_accesses              17579765                       # Number of float alu accesses
system.cpu3.num_func_calls                      40491                       # number of times a function call or return occured
system.cpu3.num_conditional_control_insts      1783388                       # number of instructions that are conditional controls
system.cpu3.num_int_insts                    25372140                       # number of integer instructions
system.cpu3.num_fp_insts                     17579765                       # number of float instructions
system.cpu3.num_int_register_reads           49037197                       # number of times the integer registers were read
system.cpu3.num_int_register_writes          12986626                       # number of times the integer registers were written
system.cpu3.num_fp_register_reads            24437779                       # number of times the floating registers were read
system.cpu3.num_fp_register_writes           14019328                       # number of times the floating registers were written
system.cpu3.num_cc_register_reads            10720595                       # number of times the CC registers were read
system.cpu3.num_cc_register_writes           10714264                       # number of times the CC registers were written
system.cpu3.num_mem_refs                     10684687                       # number of memory refs
system.cpu3.num_load_insts                    7103938                       # Number of load instructions
system.cpu3.num_store_insts                   3580749                       # Number of store instructions
system.cpu3.num_idle_cycles              5988275325.388696                       # Number of idle cycles
system.cpu3.num_busy_cycles              86622195.611304                       # Number of busy cycles
system.cpu3.not_idle_fraction                0.014259                       # Percentage of non-idle cycles
system.cpu3.idle_fraction                    0.985741                       # Percentage of idle cycles
system.cpu3.Branches                          1845679                       # Number of branches fetched
system.cpu3.op_class::No_OpClass                    2      0.00%      0.00% # Class of executed instruction
system.cpu3.op_class::IntAlu                 14626767     45.18%     45.18% # Class of executed instruction
system.cpu3.op_class::IntMult                   60671      0.19%     45.37% # Class of executed instruction
system.cpu3.op_class::IntDiv                       14      0.00%     45.37% # Class of executed instruction
system.cpu3.op_class::FloatAdd                6999559     21.62%     66.99% # Class of executed instruction
system.cpu3.op_class::FloatCmp                      0      0.00%     66.99% # Class of executed instruction
system.cpu3.op_class::FloatCvt                      0      0.00%     66.99% # Class of executed instruction
system.cpu3.op_class::FloatMult                     0      0.00%     66.99% # Class of executed instruction
system.cpu3.op_class::FloatDiv                      0      0.00%     66.99% # Class of executed instruction
system.cpu3.op_class::FloatSqrt                     0      0.00%     66.99% # Class of executed instruction
system.cpu3.op_class::SimdAdd                       0      0.00%     66.99% # Class of executed instruction
system.cpu3.op_class::SimdAddAcc                    0      0.00%     66.99% # Class of executed instruction
system.cpu3.op_class::SimdAlu                       0      0.00%     66.99% # Class of executed instruction
system.cpu3.op_class::SimdCmp                       0      0.00%     66.99% # Class of executed instruction
system.cpu3.op_class::SimdCvt                       0      0.00%     66.99% # Class of executed instruction
system.cpu3.op_class::SimdMisc                      0      0.00%     66.99% # Class of executed instruction
system.cpu3.op_class::SimdMult                      0      0.00%     66.99% # Class of executed instruction
system.cpu3.op_class::SimdMultAcc                   0      0.00%     66.99% # Class of executed instruction
system.cpu3.op_class::SimdShift                     0      0.00%     66.99% # Class of executed instruction
system.cpu3.op_class::SimdShiftAcc                  0      0.00%     66.99% # Class of executed instruction
system.cpu3.op_class::SimdSqrt                      0      0.00%     66.99% # Class of executed instruction
system.cpu3.op_class::SimdFloatAdd                  0      0.00%     66.99% # Class of executed instruction
system.cpu3.op_class::SimdFloatAlu                  0      0.00%     66.99% # Class of executed instruction
system.cpu3.op_class::SimdFloatCmp                  0      0.00%     66.99% # Class of executed instruction
system.cpu3.op_class::SimdFloatCvt                  0      0.00%     66.99% # Class of executed instruction
system.cpu3.op_class::SimdFloatDiv                  0      0.00%     66.99% # Class of executed instruction
system.cpu3.op_class::SimdFloatMisc                 0      0.00%     66.99% # Class of executed instruction
system.cpu3.op_class::SimdFloatMult                 0      0.00%     66.99% # Class of executed instruction
system.cpu3.op_class::SimdFloatMultAcc              0      0.00%     66.99% # Class of executed instruction
system.cpu3.op_class::SimdFloatSqrt                 0      0.00%     66.99% # Class of executed instruction
system.cpu3.op_class::MemRead                 7103938     21.94%     88.94% # Class of executed instruction
system.cpu3.op_class::MemWrite                3580749     11.06%    100.00% # Class of executed instruction
system.cpu3.op_class::IprAccess                     0      0.00%    100.00% # Class of executed instruction
system.cpu3.op_class::InstPrefetch                  0      0.00%    100.00% # Class of executed instruction
system.cpu3.op_class::total                  32371700                       # Class of executed instruction
system.cpu4.apic_clk_domain.clock                8000                       # Clock period in ticks
system.cpu4.numCycles                      6074896899                       # number of cpu cycles simulated
system.cpu4.numWorkItemsStarted                     0                       # number of work items this cpu started
system.cpu4.numWorkItemsCompleted                   0                       # number of work items this cpu completed
system.cpu4.committedInsts                   16277621                       # Number of instructions committed
system.cpu4.committedOps                     32371700                       # Number of ops (including micro ops) committed
system.cpu4.num_int_alu_accesses             25372140                       # Number of integer alu accesses
system.cpu4.num_fp_alu_accesses              17579765                       # Number of float alu accesses
system.cpu4.num_func_calls                      40491                       # number of times a function call or return occured
system.cpu4.num_conditional_control_insts      1783388                       # number of instructions that are conditional controls
system.cpu4.num_int_insts                    25372140                       # number of integer instructions
system.cpu4.num_fp_insts                     17579765                       # number of float instructions
system.cpu4.num_int_register_reads           49037197                       # number of times the integer registers were read
system.cpu4.num_int_register_writes          12986626                       # number of times the integer registers were written
system.cpu4.num_fp_register_reads            24437779                       # number of times the floating registers were read
system.cpu4.num_fp_register_writes           14019328                       # number of times the floating registers were written
system.cpu4.num_cc_register_reads            10720595                       # number of times the CC registers were read
system.cpu4.num_cc_register_writes           10714264                       # number of times the CC registers were written
system.cpu4.num_mem_refs                     10684687                       # number of memory refs
system.cpu4.num_load_insts                    7103938                       # Number of load instructions
system.cpu4.num_store_insts                   3580749                       # Number of store instructions
system.cpu4.num_idle_cycles              5988275950.451521                       # Number of idle cycles
system.cpu4.num_busy_cycles              86620948.548479                       # Number of busy cycles
system.cpu4.not_idle_fraction                0.014259                       # Percentage of non-idle cycles
system.cpu4.idle_fraction                    0.985741                       # Percentage of idle cycles
system.cpu4.Branches                          1845679                       # Number of branches fetched
system.cpu4.op_class::No_OpClass                    2      0.00%      0.00% # Class of executed instruction
system.cpu4.op_class::IntAlu                 14626767     45.18%     45.18% # Class of executed instruction
system.cpu4.op_class::IntMult                   60671      0.19%     45.37% # Class of executed instruction
system.cpu4.op_class::IntDiv                       14      0.00%     45.37% # Class of executed instruction
system.cpu4.op_class::FloatAdd                6999559     21.62%     66.99% # Class of executed instruction
system.cpu4.op_class::FloatCmp                      0      0.00%     66.99% # Class of executed instruction
system.cpu4.op_class::FloatCvt                      0      0.00%     66.99% # Class of executed instruction
system.cpu4.op_class::FloatMult                     0      0.00%     66.99% # Class of executed instruction
system.cpu4.op_class::FloatDiv                      0      0.00%     66.99% # Class of executed instruction
system.cpu4.op_class::FloatSqrt                     0      0.00%     66.99% # Class of executed instruction
system.cpu4.op_class::SimdAdd                       0      0.00%     66.99% # Class of executed instruction
system.cpu4.op_class::SimdAddAcc                    0      0.00%     66.99% # Class of executed instruction
system.cpu4.op_class::SimdAlu                       0      0.00%     66.99% # Class of executed instruction
system.cpu4.op_class::SimdCmp                       0      0.00%     66.99% # Class of executed instruction
system.cpu4.op_class::SimdCvt                       0      0.00%     66.99% # Class of executed instruction
system.cpu4.op_class::SimdMisc                      0      0.00%     66.99% # Class of executed instruction
system.cpu4.op_class::SimdMult                      0      0.00%     66.99% # Class of executed instruction
system.cpu4.op_class::SimdMultAcc                   0      0.00%     66.99% # Class of executed instruction
system.cpu4.op_class::SimdShift                     0      0.00%     66.99% # Class of executed instruction
system.cpu4.op_class::SimdShiftAcc                  0      0.00%     66.99% # Class of executed instruction
system.cpu4.op_class::SimdSqrt                      0      0.00%     66.99% # Class of executed instruction
system.cpu4.op_class::SimdFloatAdd                  0      0.00%     66.99% # Class of executed instruction
system.cpu4.op_class::SimdFloatAlu                  0      0.00%     66.99% # Class of executed instruction
system.cpu4.op_class::SimdFloatCmp                  0      0.00%     66.99% # Class of executed instruction
system.cpu4.op_class::SimdFloatCvt                  0      0.00%     66.99% # Class of executed instruction
system.cpu4.op_class::SimdFloatDiv                  0      0.00%     66.99% # Class of executed instruction
system.cpu4.op_class::SimdFloatMisc                 0      0.00%     66.99% # Class of executed instruction
system.cpu4.op_class::SimdFloatMult                 0      0.00%     66.99% # Class of executed instruction
system.cpu4.op_class::SimdFloatMultAcc              0      0.00%     66.99% # Class of executed instruction
system.cpu4.op_class::SimdFloatSqrt                 0      0.00%     66.99% # Class of executed instruction
system.cpu4.op_class::MemRead                 7103938     21.94%     88.94% # Class of executed instruction
system.cpu4.op_class::MemWrite                3580749     11.06%    100.00% # Class of executed instruction
system.cpu4.op_class::IprAccess                     0      0.00%    100.00% # Class of executed instruction
system.cpu4.op_class::InstPrefetch                  0      0.00%    100.00% # Class of executed instruction
system.cpu4.op_class::total                  32371700                       # Class of executed instruction
system.cpu5.apic_clk_domain.clock                8000                       # Clock period in ticks
system.cpu5.numCycles                      6078464673                       # number of cpu cycles simulated
system.cpu5.numWorkItemsStarted                     0                       # number of work items this cpu started
system.cpu5.numWorkItemsCompleted                   0                       # number of work items this cpu completed
system.cpu5.committedInsts                   16277621                       # Number of instructions committed
system.cpu5.committedOps                     32371700                       # Number of ops (including micro ops) committed
system.cpu5.num_int_alu_accesses             25372140                       # Number of integer alu accesses
system.cpu5.num_fp_alu_accesses              17579765                       # Number of float alu accesses
system.cpu5.num_func_calls                      40491                       # number of times a function call or return occured
system.cpu5.num_conditional_control_insts      1783388                       # number of instructions that are conditional controls
system.cpu5.num_int_insts                    25372140                       # number of integer instructions
system.cpu5.num_fp_insts                     17579765                       # number of float instructions
system.cpu5.num_int_register_reads           49037197                       # number of times the integer registers were read
system.cpu5.num_int_register_writes          12986626                       # number of times the integer registers were written
system.cpu5.num_fp_register_reads            24437779                       # number of times the floating registers were read
system.cpu5.num_fp_register_writes           14019328                       # number of times the floating registers were written
system.cpu5.num_cc_register_reads            10720595                       # number of times the CC registers were read
system.cpu5.num_cc_register_writes           10714264                       # number of times the CC registers were written
system.cpu5.num_mem_refs                     10684687                       # number of memory refs
system.cpu5.num_load_insts                    7103938                       # Number of load instructions
system.cpu5.num_store_insts                   3580749                       # Number of store instructions
system.cpu5.num_idle_cycles              5988226006.902617                       # Number of idle cycles
system.cpu5.num_busy_cycles              90238666.097383                       # Number of busy cycles
system.cpu5.not_idle_fraction                0.014846                       # Percentage of non-idle cycles
system.cpu5.idle_fraction                    0.985154                       # Percentage of idle cycles
system.cpu5.Branches                          1845679                       # Number of branches fetched
system.cpu5.op_class::No_OpClass                    2      0.00%      0.00% # Class of executed instruction
system.cpu5.op_class::IntAlu                 14626767     45.18%     45.18% # Class of executed instruction
system.cpu5.op_class::IntMult                   60671      0.19%     45.37% # Class of executed instruction
system.cpu5.op_class::IntDiv                       14      0.00%     45.37% # Class of executed instruction
system.cpu5.op_class::FloatAdd                6999559     21.62%     66.99% # Class of executed instruction
system.cpu5.op_class::FloatCmp                      0      0.00%     66.99% # Class of executed instruction
system.cpu5.op_class::FloatCvt                      0      0.00%     66.99% # Class of executed instruction
system.cpu5.op_class::FloatMult                     0      0.00%     66.99% # Class of executed instruction
system.cpu5.op_class::FloatDiv                      0      0.00%     66.99% # Class of executed instruction
system.cpu5.op_class::FloatSqrt                     0      0.00%     66.99% # Class of executed instruction
system.cpu5.op_class::SimdAdd                       0      0.00%     66.99% # Class of executed instruction
system.cpu5.op_class::SimdAddAcc                    0      0.00%     66.99% # Class of executed instruction
system.cpu5.op_class::SimdAlu                       0      0.00%     66.99% # Class of executed instruction
system.cpu5.op_class::SimdCmp                       0      0.00%     66.99% # Class of executed instruction
system.cpu5.op_class::SimdCvt                       0      0.00%     66.99% # Class of executed instruction
system.cpu5.op_class::SimdMisc                      0      0.00%     66.99% # Class of executed instruction
system.cpu5.op_class::SimdMult                      0      0.00%     66.99% # Class of executed instruction
system.cpu5.op_class::SimdMultAcc                   0      0.00%     66.99% # Class of executed instruction
system.cpu5.op_class::SimdShift                     0      0.00%     66.99% # Class of executed instruction
system.cpu5.op_class::SimdShiftAcc                  0      0.00%     66.99% # Class of executed instruction
system.cpu5.op_class::SimdSqrt                      0      0.00%     66.99% # Class of executed instruction
system.cpu5.op_class::SimdFloatAdd                  0      0.00%     66.99% # Class of executed instruction
system.cpu5.op_class::SimdFloatAlu                  0      0.00%     66.99% # Class of executed instruction
system.cpu5.op_class::SimdFloatCmp                  0      0.00%     66.99% # Class of executed instruction
system.cpu5.op_class::SimdFloatCvt                  0      0.00%     66.99% # Class of executed instruction
system.cpu5.op_class::SimdFloatDiv                  0      0.00%     66.99% # Class of executed instruction
system.cpu5.op_class::SimdFloatMisc                 0      0.00%     66.99% # Class of executed instruction
system.cpu5.op_class::SimdFloatMult                 0      0.00%     66.99% # Class of executed instruction
system.cpu5.op_class::SimdFloatMultAcc              0      0.00%     66.99% # Class of executed instruction
system.cpu5.op_class::SimdFloatSqrt                 0      0.00%     66.99% # Class of executed instruction
system.cpu5.op_class::MemRead                 7103938     21.94%     88.94% # Class of executed instruction
system.cpu5.op_class::MemWrite                3580749     11.06%    100.00% # Class of executed instruction
system.cpu5.op_class::IprAccess                     0      0.00%    100.00% # Class of executed instruction
system.cpu5.op_class::InstPrefetch                  0      0.00%    100.00% # Class of executed instruction
system.cpu5.op_class::total                  32371700                       # Class of executed instruction
system.cpu6.apic_clk_domain.clock                8000                       # Clock period in ticks
system.cpu6.numCycles                      6074896460                       # number of cpu cycles simulated
system.cpu6.numWorkItemsStarted                     0                       # number of work items this cpu started
system.cpu6.numWorkItemsCompleted                   0                       # number of work items this cpu completed
system.cpu6.committedInsts                   16277621                       # Number of instructions committed
system.cpu6.committedOps                     32371700                       # Number of ops (including micro ops) committed
system.cpu6.num_int_alu_accesses             25372140                       # Number of integer alu accesses
system.cpu6.num_fp_alu_accesses              17579765                       # Number of float alu accesses
system.cpu6.num_func_calls                      40491                       # number of times a function call or return occured
system.cpu6.num_conditional_control_insts      1783388                       # number of instructions that are conditional controls
system.cpu6.num_int_insts                    25372140                       # number of integer instructions
system.cpu6.num_fp_insts                     17579765                       # number of float instructions
system.cpu6.num_int_register_reads           49037197                       # number of times the integer registers were read
system.cpu6.num_int_register_writes          12986626                       # number of times the integer registers were written
system.cpu6.num_fp_register_reads            24437779                       # number of times the floating registers were read
system.cpu6.num_fp_register_writes           14019328                       # number of times the floating registers were written
system.cpu6.num_cc_register_reads            10720595                       # number of times the CC registers were read
system.cpu6.num_cc_register_writes           10714264                       # number of times the CC registers were written
system.cpu6.num_mem_refs                     10684687                       # number of memory refs
system.cpu6.num_load_insts                    7103938                       # Number of load instructions
system.cpu6.num_store_insts                   3580749                       # Number of store instructions
system.cpu6.num_idle_cycles              5988277556.383445                       # Number of idle cycles
system.cpu6.num_busy_cycles              86618903.616555                       # Number of busy cycles
system.cpu6.not_idle_fraction                0.014258                       # Percentage of non-idle cycles
system.cpu6.idle_fraction                    0.985742                       # Percentage of idle cycles
system.cpu6.Branches                          1845679                       # Number of branches fetched
system.cpu6.op_class::No_OpClass                    2      0.00%      0.00% # Class of executed instruction
system.cpu6.op_class::IntAlu                 14626767     45.18%     45.18% # Class of executed instruction
system.cpu6.op_class::IntMult                   60671      0.19%     45.37% # Class of executed instruction
system.cpu6.op_class::IntDiv                       14      0.00%     45.37% # Class of executed instruction
system.cpu6.op_class::FloatAdd                6999559     21.62%     66.99% # Class of executed instruction
system.cpu6.op_class::FloatCmp                      0      0.00%     66.99% # Class of executed instruction
system.cpu6.op_class::FloatCvt                      0      0.00%     66.99% # Class of executed instruction
system.cpu6.op_class::FloatMult                     0      0.00%     66.99% # Class of executed instruction
system.cpu6.op_class::FloatDiv                      0      0.00%     66.99% # Class of executed instruction
system.cpu6.op_class::FloatSqrt                     0      0.00%     66.99% # Class of executed instruction
system.cpu6.op_class::SimdAdd                       0      0.00%     66.99% # Class of executed instruction
system.cpu6.op_class::SimdAddAcc                    0      0.00%     66.99% # Class of executed instruction
system.cpu6.op_class::SimdAlu                       0      0.00%     66.99% # Class of executed instruction
system.cpu6.op_class::SimdCmp                       0      0.00%     66.99% # Class of executed instruction
system.cpu6.op_class::SimdCvt                       0      0.00%     66.99% # Class of executed instruction
system.cpu6.op_class::SimdMisc                      0      0.00%     66.99% # Class of executed instruction
system.cpu6.op_class::SimdMult                      0      0.00%     66.99% # Class of executed instruction
system.cpu6.op_class::SimdMultAcc                   0      0.00%     66.99% # Class of executed instruction
system.cpu6.op_class::SimdShift                     0      0.00%     66.99% # Class of executed instruction
system.cpu6.op_class::SimdShiftAcc                  0      0.00%     66.99% # Class of executed instruction
system.cpu6.op_class::SimdSqrt                      0      0.00%     66.99% # Class of executed instruction
system.cpu6.op_class::SimdFloatAdd                  0      0.00%     66.99% # Class of executed instruction
system.cpu6.op_class::SimdFloatAlu                  0      0.00%     66.99% # Class of executed instruction
system.cpu6.op_class::SimdFloatCmp                  0      0.00%     66.99% # Class of executed instruction
system.cpu6.op_class::SimdFloatCvt                  0      0.00%     66.99% # Class of executed instruction
system.cpu6.op_class::SimdFloatDiv                  0      0.00%     66.99% # Class of executed instruction
system.cpu6.op_class::SimdFloatMisc                 0      0.00%     66.99% # Class of executed instruction
system.cpu6.op_class::SimdFloatMult                 0      0.00%     66.99% # Class of executed instruction
system.cpu6.op_class::SimdFloatMultAcc              0      0.00%     66.99% # Class of executed instruction
system.cpu6.op_class::SimdFloatSqrt                 0      0.00%     66.99% # Class of executed instruction
system.cpu6.op_class::MemRead                 7103938     21.94%     88.94% # Class of executed instruction
system.cpu6.op_class::MemWrite                3580749     11.06%    100.00% # Class of executed instruction
system.cpu6.op_class::IprAccess                     0      0.00%    100.00% # Class of executed instruction
system.cpu6.op_class::InstPrefetch                  0      0.00%    100.00% # Class of executed instruction
system.cpu6.op_class::total                  32371700                       # Class of executed instruction
system.cpu7.apic_clk_domain.clock                8000                       # Clock period in ticks
system.cpu7.numCycles                      6074896079                       # number of cpu cycles simulated
system.cpu7.numWorkItemsStarted                     0                       # number of work items this cpu started
[...]
system.ruby.L1Cache_Controller.EE.L1_Replacement::total        10829                      
system.ruby.L1Cache_Controller.EE.Fwd_GETX |           1    100.00%    100.00% |           0      0.00%    100.00% |           0      0.00%    100.00% |           0      0.00%    100.00% |           0      0.00%    100.00% |           0      0.00%    100.00% |           0      0.00%    100.00% |           0      0.00%    100.00% |           0      0.00%    100.00%
system.ruby.L1Cache_Controller.EE.Fwd_GETX::total            1                      
system.ruby.L1Cache_Controller.EE.Fwd_GETS |           5      0.01%      0.01% |        1117      1.28%      1.29% |       58721     67.32%     68.60% |       14159     16.23%     84.83% |         517      0.59%     85.43% |         281      0.32%     85.75% |        2665      3.06%     88.80% |          94      0.11%     88.91% |        9674     11.09%    100.00%
system.ruby.L1Cache_Controller.EE.Fwd_GETS::total        87233                      
system.ruby.L1Cache_Controller.M.WriteBack |     2287164     87.94%     87.94% |       41342      1.59%     89.53% |       39764      1.53%     91.06% |       40633      1.56%     92.62% |       38501      1.48%     94.10% |       39104      1.50%     95.61% |       38819      1.49%     97.10% |       38093      1.46%     98.56% |       37370      1.44%    100.00%
system.ruby.L1Cache_Controller.M.WriteBack::total      2600790                      
system.ruby.L1Cache_Controller.M.L0_Invalidate_Own |        1744     78.42%     78.42% |          63      2.83%     81.25% |          29      1.30%     82.55% |          50      2.25%     84.80% |          44      1.98%     86.78% |         110      4.95%     91.73% |          66      2.97%     94.69% |          46      2.07%     96.76% |          72      3.24%    100.00%
system.ruby.L1Cache_Controller.M.L0_Invalidate_Own::total         2224                      
system.ruby.L1Cache_Controller.M.L0_Invalidate_Else |         341     52.46%     52.46% |          93     14.31%     66.77% |          10      1.54%     68.31% |          51      7.85%     76.15% |          11      1.69%     77.85% |          76     11.69%     89.54% |          36      5.54%     95.08% |          18      2.77%     97.85% |          14      2.15%    100.00%
system.ruby.L1Cache_Controller.M.L0_Invalidate_Else::total          650                      
system.ruby.L1Cache_Controller.MM.Load   |         258      0.08%      0.08% |       41485     13.19%     13.27% |       39789     12.65%     25.92% |       40718     12.94%     38.86% |       38540     12.25%     51.12% |       39276     12.49%     63.60% |       38907     12.37%     75.97% |       38141     12.13%     88.10% |       37438     11.90%    100.00%
system.ruby.L1Cache_Controller.MM.Load::total       314552                      
system.ruby.L1Cache_Controller.MM.Store  |          55    100.00%    100.00% |           0      0.00%    100.00% |           0      0.00%    100.00% |           0      0.00%    100.00% |           0      0.00%    100.00% |           0      0.00%    100.00% |           0      0.00%    100.00% |           0      0.00%    100.00% |           0      0.00%    100.00%
system.ruby.L1Cache_Controller.MM.Store::total           55                      
system.ruby.L1Cache_Controller.MM.Inv    |          13      0.02%      0.02% |       21065     27.13%     27.14% |        6334      8.16%     35.30% |        5022      6.47%     41.77% |       24026     30.94%     72.71% |       12063     15.53%     88.24% |        2881      3.71%     91.96% |        2536      3.27%     95.22% |        3711      4.78%    100.00%
system.ruby.L1Cache_Controller.MM.Inv::total        77651                      
system.ruby.L1Cache_Controller.MM.L1_Replacement |     2288066     51.64%     51.64% |      250805      5.66%     57.30% |      267051      6.03%     63.32% |      267431      6.04%     69.36% |      250671      5.66%     75.02% |      262063      5.91%     80.93% |      271451      6.13%     87.06% |      272680      6.15%     93.21% |      300907      6.79%    100.00%
system.ruby.L1Cache_Controller.MM.L1_Replacement::total      4431125                      
system.ruby.L1Cache_Controller.MM.Fwd_GETX |           0      0.00%      0.00% |           3     13.04%     13.04% |           4     17.39%     30.43% |           3     13.04%     43.48% |           3     13.04%     56.52% |           2      8.70%     65.22% |           4     17.39%     82.61% |           3     13.04%     95.65% |           1      4.35%    100.00%
system.ruby.L1Cache_Controller.MM.Fwd_GETX::total           23                      
system.ruby.L1Cache_Controller.MM.Fwd_GETS |        3692     16.24%     16.24% |        1049      4.61%     20.85% |          23      0.10%     20.95% |        7566     33.27%     54.22% |           6      0.03%     54.25% |           5      0.02%     54.27% |         738      3.25%     57.52% |           7      0.03%     57.55% |        9654     42.45%    100.00%
system.ruby.L1Cache_Controller.MM.Fwd_GETS::total        22740                      
system.ruby.L1Cache_Controller.IS.Data_Exclusive |       11573      0.49%      0.49% |      274194     11.70%     12.20% |      332301     14.18%     26.38% |      294362     12.56%     38.95% |      275375     11.75%     50.70% |      274449     11.71%     62.41% |      277918     11.86%     74.28% |      275473     11.76%     86.03% |      327181     13.97%    100.00%
system.ruby.L1Cache_Controller.IS.Data_Exclusive::total      2342826                      
system.ruby.L1Cache_Controller.IS.DataS_fromL1 |          66      0.06%      0.06% |         283      0.26%      0.32% |       14256     12.96%     13.28% |       36780     33.44%     46.73% |       11387     10.35%     57.08% |        2152      1.96%     59.04% |       22076     20.07%     79.11% |       14590     13.27%     92.38% |        8383      7.62%    100.00%
system.ruby.L1Cache_Controller.IS.DataS_fromL1::total       109973                      
system.ruby.L1Cache_Controller.IS.Data_all_Acks |          14      0.00%      0.00% |      135613     15.80%     15.80% |       65245      7.60%     23.40% |       79854      9.30%     32.71% |      126346     14.72%     47.43% |      135911     15.84%     63.27% |      112829     13.15%     76.41% |      123658     14.41%     90.82% |       78793      9.18%    100.00%
system.ruby.L1Cache_Controller.IS.Data_all_Acks::total       858263                      
system.ruby.L1Cache_Controller.IM.Data   |           0      0.00%      0.00% |           1     20.00%     20.00% |           1     20.00%     40.00% |           1     20.00%     60.00% |           0      0.00%     60.00% |           0      0.00%     60.00% |           1     20.00%     80.00% |           1     20.00%    100.00% |           0      0.00%    100.00%
system.ruby.L1Cache_Controller.IM.Data::total            5                      
system.ruby.L1Cache_Controller.IM.Data_all_Acks |     2289138    100.00%    100.00% |          11      0.00%    100.00% |          12      0.00%    100.00% |          14      0.00%    100.00% |          15      0.00%    100.00% |          13      0.00%    100.00% |          12      0.00%    100.00% |          14      0.00%    100.00% |          15      0.00%    100.00%
system.ruby.L1Cache_Controller.IM.Data_all_Acks::total      2289244                      
system.ruby.L1Cache_Controller.SM.Ack    |         133     93.01%     93.01% |           1      0.70%     93.71% |           1      0.70%     94.41% |           1      0.70%     95.10% |           1      0.70%     95.80% |           1      0.70%     96.50% |           1      0.70%     97.20% |           1      0.70%     97.90% |           3      2.10%    100.00%
system.ruby.L1Cache_Controller.SM.Ack::total          143                      
system.ruby.L1Cache_Controller.SM.Ack_all |          72     82.76%     82.76% |           2      2.30%     85.06% |           2      2.30%     87.36% |           2      2.30%     89.66% |           1      1.15%     90.80% |           1      1.15%     91.95% |           2      2.30%     94.25% |           2      2.30%     96.55% |           3      3.45%    100.00%
system.ruby.L1Cache_Controller.SM.Ack_all::total           87                      
system.ruby.L1Cache_Controller.M_I.Inv   |           0      0.00%      0.00% |           0      0.00%      0.00% |          64     98.46%     98.46% |           1      1.54%    100.00% |           0      0.00%    100.00% |           0      0.00%    100.00% |           0      0.00%    100.00% |           0      0.00%    100.00% |           0      0.00%    100.00%
system.ruby.L1Cache_Controller.M_I.Inv::total           65                      
system.ruby.L1Cache_Controller.M_I.WB_Ack |     2295780     51.68%     51.68% |      250805      5.65%     57.33% |      267002      6.01%     63.34% |      267434      6.02%     69.36% |      250671      5.64%     75.01% |      262063      5.90%     80.91% |      271451      6.11%     87.02% |      272680      6.14%     93.16% |      304003      6.84%    100.00%
system.ruby.L1Cache_Controller.M_I.WB_Ack::total      4441889                      
system.ruby.L1Cache_Controller.SINK_WB_ACK.WB_Ack |           0      0.00%      0.00% |           0      0.00%      0.00% |          64     98.46%     98.46% |           1      1.54%    100.00% |           0      0.00%    100.00% |           0      0.00%    100.00% |           0      0.00%    100.00% |           0      0.00%    100.00% |           0      0.00%    100.00%
system.ruby.L1Cache_Controller.SINK_WB_ACK.WB_Ack::total           65                      
system.ruby.L1Cache_Controller.S_IL0.L0_Invalidate_Own |           8      0.00%      0.00% |      132027     13.95%     13.95% |       82437      8.71%     22.66% |      113267     11.97%     34.63% |      133880     14.15%     48.78% |      133999     14.16%     62.94% |      131449     13.89%     76.83% |      134329     14.19%     91.02% |       84974      8.98%    100.00%
system.ruby.L1Cache_Controller.S_IL0.L0_Invalidate_Own::total       946370                      
system.ruby.L1Cache_Controller.S_IL0.L0_Invalidate_Else |           4      1.85%      1.85% |          40     18.52%     20.37% |          13      6.02%     26.39% |          12      5.56%     31.94% |          62     28.70%     60.65% |          42     19.44%     80.09% |          14      6.48%     86.57% |          15      6.94%     93.52% |          14      6.48%    100.00%
system.ruby.L1Cache_Controller.S_IL0.L0_Invalidate_Else::total          216                      
system.ruby.L1Cache_Controller.S_IL0.L0_Ack |          12      0.00%      0.00% |      132067     13.95%     13.95% |       82450      8.71%     22.66% |      113279     11.97%     34.63% |      133942     14.15%     48.78% |      134041     14.16%     62.94% |      131463     13.89%     76.83% |      134344     14.19%     91.02% |       84988      8.98%    100.00%
system.ruby.L1Cache_Controller.S_IL0.L0_Ack::total       946586                      
system.ruby.L1Cache_Controller.E_IL0.L0_DataAck |        1682      4.76%      4.76% |        4135     11.69%     16.45% |        4147     11.73%     28.18% |        4301     12.16%     40.34% |        4110     11.62%     51.97% |        4194     11.86%     63.83% |        4156     11.75%     75.58% |        4459     12.61%     88.20% |        4174     11.80%    100.00%
system.ruby.L1Cache_Controller.E_IL0.L0_DataAck::total        35358                      
system.ruby.L1Cache_Controller.E_IL0.L0_Invalidate_Own |        9390     20.63%     20.63% |        4104      9.02%     29.65% |        4122      9.06%     38.71% |        4250      9.34%     48.04% |        4106      9.02%     57.07% |        4128      9.07%     66.13% |        4133      9.08%     75.22% |        4126      9.07%     84.28% |        7154     15.72%    100.00%
system.ruby.L1Cache_Controller.E_IL0.L0_Invalidate_Own::total        45513                      
system.ruby.L1Cache_Controller.E_IL0.L0_Invalidate_Else |          17      0.02%      0.02% |        1156      1.31%      1.33% |       58944     66.77%     68.10% |       14262     16.16%     84.26% |         530      0.60%     84.86% |         358      0.41%     85.26% |        2738      3.10%     88.37% |         433      0.49%     88.86% |        9837     11.14%    100.00%
system.ruby.L1Cache_Controller.E_IL0.L0_Invalidate_Else::total        88275                      
system.ruby.L1Cache_Controller.E_IL0.L0_Ack |        7725      7.85%      7.85% |        1125      1.14%      8.99% |       58919     59.86%     68.85% |       14211     14.44%     83.29% |         526      0.53%     83.82% |         292      0.30%     84.12% |        2715      2.76%     86.88% |         100      0.10%     86.98% |       12817     13.02%    100.00%
system.ruby.L1Cache_Controller.E_IL0.L0_Ack::total        98430                      
system.ruby.L1Cache_Controller.M_IL0.L0_DataAck |        2032     73.09%     73.09% |         151      5.43%     78.53% |          32      1.15%     79.68% |          98      3.53%     83.20% |          49      1.76%     84.96% |         177      6.37%     91.33% |          98      3.53%     94.86% |          60      2.16%     97.01% |          83      2.99%    100.00%
system.ruby.L1Cache_Controller.M_IL0.L0_DataAck::total         2780                      
system.ruby.L1Cache_Controller.M_IL0.L0_Invalidate_Own |        1744     78.42%     78.42% |          63      2.83%     81.25% |          29      1.30%     82.55% |          50      2.25%     84.80% |          44      1.98%     86.78% |         110      4.95%     91.73% |          66      2.97%     94.69% |          46      2.07%     96.76% |          72      3.24%    100.00%
system.ruby.L1Cache_Controller.M_IL0.L0_Invalidate_Own::total         2224                      
system.ruby.L1Cache_Controller.M_IL0.L0_Invalidate_Else |         341     52.46%     52.46% |          93     14.31%     66.77% |          10      1.54%     68.31% |          51      7.85%     76.15% |          11      1.69%     77.85% |          76     11.69%     89.54% |          36      5.54%     95.08% |          18      2.77%     97.85% |          14      2.15%    100.00%
system.ruby.L1Cache_Controller.M_IL0.L0_Invalidate_Else::total          650                      
system.ruby.L1Cache_Controller.M_IL0.L0_Ack |          53     56.38%     56.38% |           5      5.32%     61.70% |           7      7.45%     69.15% |           3      3.19%     72.34% |           6      6.38%     78.72% |           9      9.57%     88.30% |           4      4.26%     92.55% |           4      4.26%     96.81% |           3      3.19%    100.00%
system.ruby.L1Cache_Controller.M_IL0.L0_Ack::total           94                      
system.ruby.L2Cache_Controller.L1_GETS        3469635      0.00%      0.00%
system.ruby.L2Cache_Controller.L1_GETX        2289261      0.00%      0.00%
system.ruby.L2Cache_Controller.L1_UPGRADE           82      0.00%      0.00%
system.ruby.L2Cache_Controller.L1_PUTX        4441889      0.00%      0.00%
system.ruby.L2Cache_Controller.L1_PUTX_old          130      0.00%      0.00%
system.ruby.L2Cache_Controller.L2_Replacement      1552433      0.00%      0.00%
system.ruby.L2Cache_Controller.L2_Replacement_clean        90312      0.00%      0.00%
system.ruby.L2Cache_Controller.Mem_Data       1970425      0.00%      0.00%
system.ruby.L2Cache_Controller.Mem_Ack        1642745      0.00%      0.00%
system.ruby.L2Cache_Controller.WB_Data         164732      0.00%      0.00%
system.ruby.L2Cache_Controller.WB_Data_clean        22957      0.00%      0.00%
system.ruby.L2Cache_Controller.Ack              91606      0.00%      0.00%
system.ruby.L2Cache_Controller.Ack_all          19137      0.00%      0.00%
system.ruby.L2Cache_Controller.Unblock         109973      0.00%      0.00%
system.ruby.L2Cache_Controller.Exclusive_Unblock      4632157      0.00%      0.00%
system.ruby.L2Cache_Controller.NP.L1_GETS       518330      0.00%      0.00%
system.ruby.L2Cache_Controller.NP.L1_GETX      1452095      0.00%      0.00%
system.ruby.L2Cache_Controller.NP.L1_PUTX_old           65      0.00%      0.00%
system.ruby.L2Cache_Controller.SS.L1_GETS       708745      0.00%      0.00%
system.ruby.L2Cache_Controller.SS.L1_GETX            5      0.00%      0.00%
system.ruby.L2Cache_Controller.SS.L1_UPGRADE           82      0.00%      0.00%
system.ruby.L2Cache_Controller.SS.L2_Replacement         5498      0.00%      0.00%
system.ruby.L2Cache_Controller.SS.L2_Replacement_clean        13527      0.00%      0.00%
system.ruby.L2Cache_Controller.M.L1_GETS      1856809      0.00%      0.00%
system.ruby.L2Cache_Controller.M.L1_GETX       837125      0.00%      0.00%
system.ruby.L2Cache_Controller.M.L2_Replacement      1538302      0.00%      0.00%
system.ruby.L2Cache_Controller.M.L2_Replacement_clean         7590      0.00%      0.00%
system.ruby.L2Cache_Controller.MT.L1_GETS       109973      0.00%      0.00%
system.ruby.L2Cache_Controller.MT.L1_GETX           24      0.00%      0.00%
system.ruby.L2Cache_Controller.MT.L1_PUTX      4441889      0.00%      0.00%
system.ruby.L2Cache_Controller.MT.L2_Replacement         8633      0.00%      0.00%
system.ruby.L2Cache_Controller.MT.L2_Replacement_clean        69195      0.00%      0.00%
system.ruby.L2Cache_Controller.M_I.L1_GETX            2      0.00%      0.00%
system.ruby.L2Cache_Controller.M_I.Mem_Ack      1642745      0.00%      0.00%
system.ruby.L2Cache_Controller.MT_I.WB_Data         8616      0.00%      0.00%
system.ruby.L2Cache_Controller.MT_I.WB_Data_clean            2      0.00%      0.00%
system.ruby.L2Cache_Controller.MT_I.Ack_all           15      0.00%      0.00%
system.ruby.L2Cache_Controller.MCT_I.L1_PUTX_old           65      0.00%      0.00%
system.ruby.L2Cache_Controller.MCT_I.WB_Data        65151      0.00%      0.00%
system.ruby.L2Cache_Controller.MCT_I.WB_Data_clean         3947      0.00%      0.00%
system.ruby.L2Cache_Controller.MCT_I.Ack_all           97      0.00%      0.00%
system.ruby.L2Cache_Controller.I_I.Ack          66400      0.00%      0.00%
system.ruby.L2Cache_Controller.I_I.Ack_all        13527      0.00%      0.00%
system.ruby.L2Cache_Controller.S_I.Ack          25206      0.00%      0.00%
system.ruby.L2Cache_Controller.S_I.Ack_all         5498      0.00%      0.00%
system.ruby.L2Cache_Controller.ISS.L1_GETS        32313      0.00%      0.00%
system.ruby.L2Cache_Controller.ISS.Mem_Data       486017      0.00%      0.00%
system.ruby.L2Cache_Controller.IS.L1_GETS        84892      0.00%      0.00%
system.ruby.L2Cache_Controller.IS.Mem_Data        32313      0.00%      0.00%
system.ruby.L2Cache_Controller.IM.L1_GETX            4      0.00%      0.00%
system.ruby.L2Cache_Controller.IM.Mem_Data      1452095      0.00%      0.00%
system.ruby.L2Cache_Controller.SS_MB.Exclusive_Unblock           87      0.00%      0.00%
system.ruby.L2Cache_Controller.MT_MB.L1_GETS         6001      0.00%      0.00%
system.ruby.L2Cache_Controller.MT_MB.L1_GETX            6      0.00%      0.00%
system.ruby.L2Cache_Controller.MT_MB.Exclusive_Unblock      4632070      0.00%      0.00%
system.ruby.L2Cache_Controller.MT_IIB.L1_GETS       151518      0.00%      0.00%
system.ruby.L2Cache_Controller.MT_IIB.WB_Data        90735      0.00%      0.00%
system.ruby.L2Cache_Controller.MT_IIB.WB_Data_clean        18809      0.00%      0.00%
system.ruby.L2Cache_Controller.MT_IIB.Unblock          429      0.00%      0.00%
system.ruby.L2Cache_Controller.MT_IB.WB_Data          230      0.00%      0.00%
system.ruby.L2Cache_Controller.MT_IB.WB_Data_clean          199      0.00%      0.00%
system.ruby.L2Cache_Controller.MT_SB.L1_GETS         1054      0.00%      0.00%
system.ruby.L2Cache_Controller.MT_SB.Unblock       109544      0.00%      0.00%

---------- End Simulation Statistics   ----------
