
---------- Begin Simulation Statistics ----------
sim_seconds                                  2.659805                       # Number of seconds simulated
sim_ticks                                2659805303500                       # Number of ticks simulated
final_tick                               2659805303500                       # Number of ticks from beginning of simulation (restored from checkpoints and never reset)
sim_freq                                 1000000000000                       # Frequency of simulated ticks
host_inst_rate                                 141051                       # Simulator instruction rate (inst/s)
host_op_rate                                   302717                       # Simulator op (including micro ops) rate (op/s)
host_tick_rate                              200184676                       # Simulator tick rate (ticks/s)
host_mem_usage                                1778996                       # Number of bytes of host memory used
host_seconds                                 13286.76                       # Real time elapsed on the host
sim_insts                                  1874108668                       # Number of instructions simulated
sim_ops                                    4022130723                       # Number of ops (including micro ops) simulated
system.voltage_domain.voltage                       1                       # Voltage in Volts
system.clk_domain.clock                          1000                       # Clock period in ticks
system.mem_ctrls.bytes_read::ruby.dir_cntrl0    414539776                       # Number of bytes read from this memory
system.mem_ctrls.bytes_read::total          414539776                       # Number of bytes read from this memory
system.mem_ctrls.bytes_written::ruby.dir_cntrl0    201748928                       # Number of bytes written to this memory
system.mem_ctrls.bytes_written::total       201748928                       # Number of bytes written to this memory
system.mem_ctrls.num_reads::ruby.dir_cntrl0      6477184                       # Number of read requests responded to by this memory
system.mem_ctrls.num_reads::total             6477184                       # Number of read requests responded to by this memory
system.mem_ctrls.num_writes::ruby.dir_cntrl0      3152327                       # Number of write requests responded to by this memory
system.mem_ctrls.num_writes::total            3152327                       # Number of write requests responded to by this memory
system.mem_ctrls.bw_read::ruby.dir_cntrl0    155853429                       # Total read bandwidth from this memory (bytes/s)
system.mem_ctrls.bw_read::total             155853429                       # Total read bandwidth from this memory (bytes/s)
system.mem_ctrls.bw_write::ruby.dir_cntrl0     75851014                       # Write bandwidth from this memory (bytes/s)
system.mem_ctrls.bw_write::total             75851014                       # Write bandwidth from this memory (bytes/s)
system.mem_ctrls.bw_total::ruby.dir_cntrl0    231704442                       # Total bandwidth to/from this memory (bytes/s)
system.mem_ctrls.bw_total::total            231704442                       # Total bandwidth to/from this memory (bytes/s)
system.mem_ctrls.readReqs                     6477184                       # Number of read requests accepted
system.mem_ctrls.writeReqs                    3152327                       # Number of write requests accepted
system.mem_ctrls.readBursts                   6477184                       # Number of DRAM read bursts, including those serviced by the write queue
system.mem_ctrls.writeBursts                  3152327                       # Number of DRAM write bursts, including those merged in the write queue
system.mem_ctrls.bytesReadDRAM              414535104                       # Total number of bytes read from DRAM
system.mem_ctrls.bytesReadWrQ                    4672                       # Total number of bytes read from write queue
system.mem_ctrls.bytesWritten               201747776                       # Total number of bytes written to DRAM
system.mem_ctrls.bytesReadSys               414539776                       # Total read bytes from the system interface side
system.mem_ctrls.bytesWrittenSys            201748928                       # Total written bytes from the system interface side
system.mem_ctrls.servicedByWrQ                     73                       # Number of DRAM read bursts serviced by the write queue
system.mem_ctrls.mergedWrBursts                     0                       # Number of DRAM write bursts merged with an existing one
system.mem_ctrls.neitherReadNorWriteReqs            0                       # Number of requests that are neither read nor write
system.mem_ctrls.perBankRdBursts::0            405170                       # Per bank write bursts
system.mem_ctrls.perBankRdBursts::1            405326                       # Per bank write bursts
system.mem_ctrls.perBankRdBursts::2            405231                       # Per bank write bursts
system.mem_ctrls.perBankRdBursts::3            405030                       # Per bank write bursts
system.mem_ctrls.perBankRdBursts::4            405149                       # Per bank write bursts
system.mem_ctrls.perBankRdBursts::5            404781                       # Per bank write bursts
system.mem_ctrls.perBankRdBursts::6            403647                       # Per bank write bursts
system.mem_ctrls.perBankRdBursts::7            403918                       # Per bank write bursts
system.mem_ctrls.perBankRdBursts::8            403802                       # Per bank write bursts
system.mem_ctrls.perBankRdBursts::9            405091                       # Per bank write bursts
system.mem_ctrls.perBankRdBursts::10           405108                       # Per bank write bursts
system.mem_ctrls.perBankRdBursts::11           404934                       # Per bank write bursts
system.mem_ctrls.perBankRdBursts::12           405002                       # Per bank write bursts
system.mem_ctrls.perBankRdBursts::13           404875                       # Per bank write bursts
system.mem_ctrls.perBankRdBursts::14           405061                       # Per bank write bursts
system.mem_ctrls.perBankRdBursts::15           404986                       # Per bank write bursts
system.mem_ctrls.perBankWrBursts::0            196606                       # Per bank write bursts
system.mem_ctrls.perBankWrBursts::1            196638                       # Per bank write bursts
system.mem_ctrls.perBankWrBursts::2            196680                       # Per bank write bursts
system.mem_ctrls.perBankWrBursts::3            196470                       # Per bank write bursts
system.mem_ctrls.perBankWrBursts::4            196872                       # Per bank write bursts
system.mem_ctrls.perBankWrBursts::5            197191                       # Per bank write bursts
system.mem_ctrls.perBankWrBursts::6            196736                       # Per bank write bursts
system.mem_ctrls.perBankWrBursts::7            196813                       # Per bank write bursts
system.mem_ctrls.perBankWrBursts::8            197246                       # Per bank write bursts
system.mem_ctrls.perBankWrBursts::9            198459                       # Per bank write bursts
system.mem_ctrls.perBankWrBursts::10           198078                       # Per bank write bursts
system.mem_ctrls.perBankWrBursts::11           196759                       # Per bank write bursts
system.mem_ctrls.perBankWrBursts::12           197032                       # Per bank write bursts
system.mem_ctrls.perBankWrBursts::13           197007                       # Per bank write bursts
system.mem_ctrls.perBankWrBursts::14           196868                       # Per bank write bursts
system.mem_ctrls.perBankWrBursts::15           196854                       # Per bank write bursts
system.mem_ctrls.numRdRetry                         0                       # Number of times read queue was full causing retry
system.mem_ctrls.numWrRetry                         0                       # Number of times write queue was full causing retry
system.mem_ctrls.totGap                  2659805242500                       # Total gap between requests
system.mem_ctrls.readPktSize::0                     0                       # Read request sizes (log2)
system.mem_ctrls.readPktSize::1                     0                       # Read request sizes (log2)
system.mem_ctrls.readPktSize::2                     0                       # Read request sizes (log2)
system.mem_ctrls.readPktSize::3                     0                       # Read request sizes (log2)
system.mem_ctrls.readPktSize::4                     0                       # Read request sizes (log2)
system.mem_ctrls.readPktSize::5                     0                       # Read request sizes (log2)
system.mem_ctrls.readPktSize::6               6477184                       # Read request sizes (log2)
system.mem_ctrls.writePktSize::0                    0                       # Write request sizes (log2)
system.mem_ctrls.writePktSize::1                    0                       # Write request sizes (log2)
system.mem_ctrls.writePktSize::2                    0                       # Write request sizes (log2)
system.mem_ctrls.writePktSize::3                    0                       # Write request sizes (log2)
system.mem_ctrls.writePktSize::4                    0                       # Write request sizes (log2)
system.mem_ctrls.writePktSize::5                    0                       # Write request sizes (log2)
system.mem_ctrls.writePktSize::6              3152327                       # Write request sizes (log2)
system.mem_ctrls.rdQLenPdf::0                 6477071                       # What read queue length does an incoming req see
system.mem_ctrls.rdQLenPdf::1                      40                       # What read queue length does an incoming req see
system.mem_ctrls.rdQLenPdf::2                       0                       # What read queue length does an incoming req see
system.mem_ctrls.rdQLenPdf::3                       0                       # What read queue length does an incoming req see
system.mem_ctrls.rdQLenPdf::4                       0                       # What read queue length does an incoming req see
system.mem_ctrls.rdQLenPdf::5                       0                       # What read queue length does an incoming req see
system.mem_ctrls.rdQLenPdf::6                       0                       # What read queue length does an incoming req see
system.mem_ctrls.rdQLenPdf::7                       0                       # What read queue length does an incoming req see
system.mem_ctrls.rdQLenPdf::8                       0                       # What read queue length does an incoming req see
system.mem_ctrls.rdQLenPdf::9                       0                       # What read queue length does an incoming req see
system.mem_ctrls.rdQLenPdf::10                      0                       # What read queue length does an incoming req see
system.mem_ctrls.rdQLenPdf::11                      0                       # What read queue length does an incoming req see
system.mem_ctrls.rdQLenPdf::12                      0                       # What read queue length does an incoming req see
system.mem_ctrls.rdQLenPdf::13                      0                       # What read queue length does an incoming req see
system.mem_ctrls.rdQLenPdf::14                      0                       # What read queue length does an incoming req see
system.mem_ctrls.rdQLenPdf::15                      0                       # What read queue length does an incoming req see
system.mem_ctrls.rdQLenPdf::16                      0                       # What read queue length does an incoming req see
system.mem_ctrls.rdQLenPdf::17                      0                       # What read queue length does an incoming req see
system.mem_ctrls.rdQLenPdf::18                      0                       # What read queue length does an incoming req see
system.mem_ctrls.rdQLenPdf::19                      0                       # What read queue length does an incoming req see
system.mem_ctrls.rdQLenPdf::20                      0                       # What read queue length does an incoming req see
system.mem_ctrls.rdQLenPdf::21                      0                       # What read queue length does an incoming req see
system.mem_ctrls.rdQLenPdf::22                      0                       # What read queue length does an incoming req see
system.mem_ctrls.rdQLenPdf::23                      0                       # What read queue length does an incoming req see
system.mem_ctrls.rdQLenPdf::24                      0                       # What read queue length does an incoming req see
system.mem_ctrls.rdQLenPdf::25                      0                       # What read queue length does an incoming req see
system.mem_ctrls.rdQLenPdf::26                      0                       # What read queue length does an incoming req see
system.mem_ctrls.rdQLenPdf::27                      0                       # What read queue length does an incoming req see
system.mem_ctrls.rdQLenPdf::28                      0                       # What read queue length does an incoming req see
system.mem_ctrls.rdQLenPdf::29                      0                       # What read queue length does an incoming req see
system.mem_ctrls.rdQLenPdf::30                      0                       # What read queue length does an incoming req see
system.mem_ctrls.rdQLenPdf::31                      0                       # What read queue length does an incoming req see
system.mem_ctrls.wrQLenPdf::0                       1                       # What write queue length does an incoming req see
system.mem_ctrls.wrQLenPdf::1                       1                       # What write queue length does an incoming req see
system.mem_ctrls.wrQLenPdf::2                       1                       # What write queue length does an incoming req see
system.mem_ctrls.wrQLenPdf::3                       1                       # What write queue length does an incoming req see
system.mem_ctrls.wrQLenPdf::4                       1                       # What write queue length does an incoming req see
system.mem_ctrls.wrQLenPdf::5                       1                       # What write queue length does an incoming req see
system.mem_ctrls.wrQLenPdf::6                       1                       # What write queue length does an incoming req see
system.mem_ctrls.wrQLenPdf::7                       1                       # What write queue length does an incoming req see
system.mem_ctrls.wrQLenPdf::8                       1                       # What write queue length does an incoming req see
system.mem_ctrls.wrQLenPdf::9                       1                       # What write queue length does an incoming req see
system.mem_ctrls.wrQLenPdf::10                      1                       # What write queue length does an incoming req see
system.mem_ctrls.wrQLenPdf::11                      1                       # What write queue length does an incoming req see
system.mem_ctrls.wrQLenPdf::12                      1                       # What write queue length does an incoming req see
system.mem_ctrls.wrQLenPdf::13                      1                       # What write queue length does an incoming req see
system.mem_ctrls.wrQLenPdf::14                      1                       # What write queue length does an incoming req see
system.mem_ctrls.wrQLenPdf::15                   4132                       # What write queue length does an incoming req see
system.mem_ctrls.wrQLenPdf::16                   6258                       # What write queue length does an incoming req see
system.mem_ctrls.wrQLenPdf::17                 196166                       # What write queue length does an incoming req see
system.mem_ctrls.wrQLenPdf::18                 196372                       # What write queue length does an incoming req see
system.mem_ctrls.wrQLenPdf::19                 196372                       # What write queue length does an incoming req see
system.mem_ctrls.wrQLenPdf::20                 196370                       # What write queue length does an incoming req see
system.mem_ctrls.wrQLenPdf::21                 196372                       # What write queue length does an incoming req see
system.mem_ctrls.wrQLenPdf::22                 196376                       # What write queue length does an incoming req see
system.mem_ctrls.wrQLenPdf::23                 196370                       # What write queue length does an incoming req see
system.mem_ctrls.wrQLenPdf::24                 196551                       # What write queue length does an incoming req see
system.mem_ctrls.wrQLenPdf::25                 196381                       # What write queue length does an incoming req see
system.mem_ctrls.wrQLenPdf::26                 196370                       # What write queue length does an incoming req see
system.mem_ctrls.wrQLenPdf::27                 196370                       # What write queue length does an incoming req see
system.mem_ctrls.wrQLenPdf::28                 196372                       # What write queue length does an incoming req see
system.mem_ctrls.wrQLenPdf::29                 196370                       # What write queue length does an incoming req see
system.mem_ctrls.wrQLenPdf::30                 196370                       # What write queue length does an incoming req see
system.mem_ctrls.wrQLenPdf::31                 196370                       # What write queue length does an incoming req see
system.mem_ctrls.wrQLenPdf::32                 196370                       # What write queue length does an incoming req see
system.mem_ctrls.wrQLenPdf::33                      0                       # What write queue length does an incoming req see
system.mem_ctrls.wrQLenPdf::34                      0                       # What write queue length does an incoming req see
system.mem_ctrls.wrQLenPdf::35                      0                       # What write queue length does an incoming req see
system.mem_ctrls.wrQLenPdf::36                      0                       # What write queue length does an incoming req see
system.mem_ctrls.wrQLenPdf::37                      0                       # What write queue length does an incoming req see
system.mem_ctrls.wrQLenPdf::38                      0                       # What write queue length does an incoming req see
system.mem_ctrls.wrQLenPdf::39                      0                       # What write queue length does an incoming req see
system.mem_ctrls.wrQLenPdf::40                      0                       # What write queue length does an incoming req see
system.mem_ctrls.wrQLenPdf::41                      0                       # What write queue length does an incoming req see
system.mem_ctrls.wrQLenPdf::42                      0                       # What write queue length does an incoming req see
system.mem_ctrls.wrQLenPdf::43                      0                       # What write queue length does an incoming req see
system.mem_ctrls.wrQLenPdf::44                      0                       # What write queue length does an incoming req see
system.mem_ctrls.wrQLenPdf::45                      0                       # What write queue length does an incoming req see
system.mem_ctrls.wrQLenPdf::46                      0                       # What write queue length does an incoming req see
system.mem_ctrls.wrQLenPdf::47                      0                       # What write queue length does an incoming req see
system.mem_ctrls.wrQLenPdf::48                      0                       # What write queue length does an incoming req see
system.mem_ctrls.wrQLenPdf::49                      0                       # What write queue length does an incoming req see
system.mem_ctrls.wrQLenPdf::50                      0                       # What write queue length does an incoming req see
system.mem_ctrls.wrQLenPdf::51                      0                       # What write queue length does an incoming req see
system.mem_ctrls.wrQLenPdf::52                      0                       # What write queue length does an incoming req see
system.mem_ctrls.wrQLenPdf::53                      0                       # What write queue length does an incoming req see
system.mem_ctrls.wrQLenPdf::54                      0                       # What write queue length does an incoming req see
system.mem_ctrls.wrQLenPdf::55                      0                       # What write queue length does an incoming req see
system.mem_ctrls.wrQLenPdf::56                      0                       # What write queue length does an incoming req see
system.mem_ctrls.wrQLenPdf::57                      0                       # What write queue length does an incoming req see
system.mem_ctrls.wrQLenPdf::58                      0                       # What write queue length does an incoming req see
system.mem_ctrls.wrQLenPdf::59                      0                       # What write queue length does an incoming req see
system.mem_ctrls.wrQLenPdf::60                      0                       # What write queue length does an incoming req see
system.mem_ctrls.wrQLenPdf::61                      0                       # What write queue length does an incoming req see
system.mem_ctrls.wrQLenPdf::62                      0                       # What write queue length does an incoming req see
system.mem_ctrls.wrQLenPdf::63                      0                       # What write queue length does an incoming req see
system.mem_ctrls.bytesPerActivate::samples      1029611                       # Bytes accessed per row activation
system.mem_ctrls.bytesPerActivate::mean    598.556589                       # Bytes accessed per row activation
system.mem_ctrls.bytesPerActivate::gmean   463.557151                       # Bytes accessed per row activation
system.mem_ctrls.bytesPerActivate::stdev   347.675079                       # Bytes accessed per row activation
system.mem_ctrls.bytesPerActivate::0-127        73323      7.12%      7.12% # Bytes accessed per row activation
system.mem_ctrls.bytesPerActivate::128-255        88580      8.60%     15.72% # Bytes accessed per row activation
system.mem_ctrls.bytesPerActivate::256-383       165288     16.05%     31.78% # Bytes accessed per row activation
system.mem_ctrls.bytesPerActivate::384-511        59148      5.74%     37.52% # Bytes accessed per row activation
system.mem_ctrls.bytesPerActivate::512-639       211726     20.56%     58.09% # Bytes accessed per row activation
system.mem_ctrls.bytesPerActivate::640-767        41015      3.98%     62.07% # Bytes accessed per row activation
system.mem_ctrls.bytesPerActivate::768-895        28314      2.75%     64.82% # Bytes accessed per row activation
system.mem_ctrls.bytesPerActivate::896-1023        27147      2.64%     67.46% # Bytes accessed per row activation
system.mem_ctrls.bytesPerActivate::1024-1151       335070     32.54%    100.00% # Bytes accessed per row activation
system.mem_ctrls.bytesPerActivate::total      1029611                       # Bytes accessed per row activation
system.mem_ctrls.rdPerTurnAround::samples       196370                       # Reads before turning the bus around for writes
system.mem_ctrls.rdPerTurnAround::mean      32.984132                       # Reads before turning the bus around for writes
system.mem_ctrls.rdPerTurnAround::gmean     18.028550                       # Reads before turning the bus around for writes
system.mem_ctrls.rdPerTurnAround::stdev   1062.647054                       # Reads before turning the bus around for writes
system.mem_ctrls.rdPerTurnAround::0-8191       196306     99.97%     99.97% # Reads before turning the bus around for writes
system.mem_ctrls.rdPerTurnAround::8192-16383           22      0.01%     99.98% # Reads before turning the bus around for writes
system.mem_ctrls.rdPerTurnAround::16384-24575           13      0.01%     99.99% # Reads before turning the bus around for writes
system.mem_ctrls.rdPerTurnAround::24576-32767            8      0.00%     99.99% # Reads before turning the bus around for writes
system.mem_ctrls.rdPerTurnAround::32768-40959           13      0.01%    100.00% # Reads before turning the bus around for writes
system.mem_ctrls.rdPerTurnAround::40960-49151            3      0.00%    100.00% # Reads before turning the bus around for writes
system.mem_ctrls.rdPerTurnAround::139264-147455            1      0.00%    100.00% # Reads before turning the bus around for writes
system.mem_ctrls.rdPerTurnAround::172032-180223            1      0.00%    100.00% # Reads before turning the bus around for writes
system.mem_ctrls.rdPerTurnAround::188416-196607            1      0.00%    100.00% # Reads before turning the bus around for writes
system.mem_ctrls.rdPerTurnAround::196608-204799            1      0.00%    100.00% # Reads before turning the bus around for writes
system.mem_ctrls.rdPerTurnAround::221184-229375            1      0.00%    100.00% # Reads before turning the bus around for writes
system.mem_ctrls.rdPerTurnAround::total        196370                       # Reads before turning the bus around for writes
system.mem_ctrls.wrPerTurnAround::samples       196370                       # Writes before turning the bus around for reads
system.mem_ctrls.wrPerTurnAround::mean      16.052905                       # Writes before turning the bus around for reads
system.mem_ctrls.wrPerTurnAround::gmean     16.049928                       # Writes before turning the bus around for reads
system.mem_ctrls.wrPerTurnAround::stdev      0.320979                       # Writes before turning the bus around for reads
system.mem_ctrls.wrPerTurnAround::16           191176     97.35%     97.35% # Writes before turning the bus around for reads
system.mem_ctrls.wrPerTurnAround::18             5193      2.64%    100.00% # Writes before turning the bus around for reads
system.mem_ctrls.wrPerTurnAround::19                1      0.00%    100.00% # Writes before turning the bus around for reads
system.mem_ctrls.wrPerTurnAround::total        196370                       # Writes before turning the bus around for reads
system.mem_ctrls.totQLat                  59640527497                       # Total ticks spent queuing
system.mem_ctrls.totMemAccLat            181086358747                       # Total ticks spent from burst creation until serviced by the DRAM
system.mem_ctrls.totBusLat                32385555000                       # Total ticks spent in databus transfers
system.mem_ctrls.avgQLat                      9207.89                       # Average queueing delay per DRAM burst
system.mem_ctrls.avgBusLat                    5000.00                       # Average bus latency per DRAM burst
system.mem_ctrls.avgMemAccLat                27957.89                       # Average memory access latency per DRAM burst
system.mem_ctrls.avgRdBW                       155.85                       # Average DRAM read bandwidth in MiByte/s
system.mem_ctrls.avgWrBW                        75.85                       # Average achieved write bandwidth in MiByte/s
system.mem_ctrls.avgRdBWSys                    155.85                       # Average system read bandwidth in MiByte/s
system.mem_ctrls.avgWrBWSys                     75.85                       # Average system write bandwidth in MiByte/s
system.mem_ctrls.peakBW                      12800.00                       # Theoretical peak bandwidth in MiByte/s
system.mem_ctrls.busUtil                         1.81                       # Data bus utilization in percentage
system.mem_ctrls.busUtilRead                     1.22                       # Data bus utilization in percentage for reads
system.mem_ctrls.busUtilWrite                    0.59                       # Data bus utilization in percentage for writes
system.mem_ctrls.avgRdQLen                       1.00                       # Average read queue length when enqueuing
system.mem_ctrls.avgWrQLen                      23.84                       # Average write queue length when enqueuing
system.mem_ctrls.readRowHits                  5731758                       # Number of row buffer hits during reads
system.mem_ctrls.writeRowHits                 2868038                       # Number of row buffer hits during writes
system.mem_ctrls.readRowHitRate                 88.49                       # Row buffer hit rate for reads
system.mem_ctrls.writeRowHitRate                90.98                       # Row buffer hit rate for writes
system.mem_ctrls.avgGap                     276213.95                       # Average gap between requests
system.mem_ctrls.pageHitRate                    89.31                       # Row buffer hit rate, read and write combined
system.mem_ctrls_0.actEnergy               3901247280                       # Energy for activate commands per rank (pJ)
system.mem_ctrls_0.preEnergy               2128656750                       # Energy for precharge commands per rank (pJ)
system.mem_ctrls_0.readEnergy             25258155000                       # Energy for read commands per rank (pJ)
system.mem_ctrls_0.writeEnergy            10199435760                       # Energy for write commands per rank (pJ)
system.mem_ctrls_0.refreshEnergy         173725113120                       # Energy for refresh commands per rank (pJ)
system.mem_ctrls_0.actBackEnergy         807224307435                       # Energy for active background per rank (pJ)
system.mem_ctrls_0.preBackEnergy         887787801750                       # Energy for precharge background per rank (pJ)
system.mem_ctrls_0.totalEnergy           1910224717095                       # Total energy per rank (pJ)
system.mem_ctrls_0.averagePower            718.183907                       # Core power per rank (mW)
system.mem_ctrls_0.memoryStateTime::IDLE 1469296784250                       # Time in different power states
system.mem_ctrls_0.memoryStateTime::REF   88816520000                       # Time in different power states
system.mem_ctrls_0.memoryStateTime::PRE_PDN            0                       # Time in different power states
system.mem_ctrls_0.memoryStateTime::ACT  1101685542000                       # Time in different power states
system.mem_ctrls_0.memoryStateTime::ACT_PDN            0                       # Time in different power states
system.mem_ctrls_1.actEnergy               3882407760                       # Energy for activate commands per rank (pJ)
system.mem_ctrls_1.preEnergy               2118377250                       # Energy for precharge commands per rank (pJ)
system.mem_ctrls_1.readEnergy             25262757000                       # Energy for read commands per rank (pJ)
system.mem_ctrls_1.writeEnergy            10227215520                       # Energy for write commands per rank (pJ)
system.mem_ctrls_1.refreshEnergy         173725113120                       # Energy for refresh commands per rank (pJ)
system.mem_ctrls_1.actBackEnergy         804909546270                       # Energy for active background per rank (pJ)
system.mem_ctrls_1.preBackEnergy         889818294000                       # Energy for precharge background per rank (pJ)
system.mem_ctrls_1.totalEnergy           1909943710920                       # Total energy per rank (pJ)
system.mem_ctrls_1.averagePower            718.078257                       # Core power per rank (mW)
system.mem_ctrls_1.memoryStateTime::IDLE 1472698333750                       # Time in different power states
system.mem_ctrls_1.memoryStateTime::REF   88816520000                       # Time in different power states
system.mem_ctrls_1.memoryStateTime::PRE_PDN            0                       # Time in different power states
system.mem_ctrls_1.memoryStateTime::ACT  1098284410750                       # Time in different power states
system.mem_ctrls_1.memoryStateTime::ACT_PDN            0                       # Time in different power states
system.cpu_voltage_domain.voltage                   1                       # Voltage in Volts
system.cpu_clk_domain.clock                       500                       # Clock period in ticks
system.cpu0.apic_clk_domain.clock                8000                       # Clock period in ticks
system.cpu0.workload.num_syscalls                 172                       # Number of system calls
system.cpu0.numCycles                      5319610607                       # number of cpu cycles simulated
system.cpu0.numWorkItemsStarted                     0                       # number of work items this cpu started
system.cpu0.numWorkItemsCompleted                   0                       # number of work items this cpu completed
system.cpu0.committedInsts                 1459632593                       # Number of instructions committed
system.cpu0.committedOps                   3195904778                       # Number of ops (including micro ops) committed
system.cpu0.num_int_alu_accesses           3067837901                       # Number of integer alu accesses
system.cpu0.num_fp_alu_accesses              54163724                       # Number of float alu accesses
system.cpu0.num_func_calls                   76064090                       # number of times a function call or return occured
system.cpu0.num_conditional_control_insts    308418029                       # number of instructions that are conditional controls
system.cpu0.num_int_insts                  3067837901                       # number of integer instructions
system.cpu0.num_fp_insts                     54163724                       # number of float instructions
system.cpu0.num_int_register_reads         6630654226                       # number of times the integer registers were read
system.cpu0.num_int_register_writes        2792228690                       # number of times the integer registers were written
system.cpu0.num_fp_register_reads            87042059                       # number of times the floating registers were read
system.cpu0.num_fp_register_writes           42571560                       # number of times the floating registers were written
system.cpu0.num_cc_register_reads          2607770174                       # number of times the CC registers were read
system.cpu0.num_cc_register_writes          944164564                       # number of times the CC registers were written
system.cpu0.num_mem_refs                    745764828                       # number of memory refs
system.cpu0.num_load_insts                  476780917                       # Number of load instructions
system.cpu0.num_store_insts                 268983911                       # Number of store instructions
system.cpu0.num_idle_cycles                  0.002000                       # Number of idle cycles
system.cpu0.num_busy_cycles              5319610606.998000                       # Number of busy cycles
system.cpu0.not_idle_fraction                1.000000                       # Percentage of non-idle cycles
system.cpu0.idle_fraction                    0.000000                       # Percentage of idle cycles
system.cpu0.Branches                        420976173                       # Number of branches fetched
system.cpu0.op_class::No_OpClass             44484258      1.39%      1.39% # Class of executed instruction
system.cpu0.op_class::IntAlu               2173123820     68.00%     69.39% # Class of executed instruction
system.cpu0.op_class::IntMult                     696      0.00%     69.39% # Class of executed instruction
system.cpu0.op_class::IntDiv                189960672      5.94%     75.33% # Class of executed instruction
system.cpu0.op_class::FloatAdd               42570504      1.33%     76.66% # Class of executed instruction
system.cpu0.op_class::FloatCmp                      0      0.00%     76.66% # Class of executed instruction
system.cpu0.op_class::FloatCvt                      0      0.00%     76.66% # Class of executed instruction
system.cpu0.op_class::FloatMult                     0      0.00%     76.66% # Class of executed instruction
system.cpu0.op_class::FloatDiv                      0      0.00%     76.66% # Class of executed instruction
system.cpu0.op_class::FloatSqrt                     0      0.00%     76.66% # Class of executed instruction
system.cpu0.op_class::SimdAdd                       0      0.00%     76.66% # Class of executed instruction
system.cpu0.op_class::SimdAddAcc                    0      0.00%     76.66% # Class of executed instruction
system.cpu0.op_class::SimdAlu                       0      0.00%     76.66% # Class of executed instruction
system.cpu0.op_class::SimdCmp                       0      0.00%     76.66% # Class of executed instruction
system.cpu0.op_class::SimdCvt                       0      0.00%     76.66% # Class of executed instruction
system.cpu0.op_class::SimdMisc                      0      0.00%     76.66% # Class of executed instruction
system.cpu0.op_class::SimdMult                      0      0.00%     76.66% # Class of executed instruction
system.cpu0.op_class::SimdMultAcc                   0      0.00%     76.66% # Class of executed instruction
system.cpu0.op_class::SimdShift                     0      0.00%     76.66% # Class of executed instruction
system.cpu0.op_class::SimdShiftAcc                  0      0.00%     76.66% # Class of executed instruction
system.cpu0.op_class::SimdSqrt                      0      0.00%     76.66% # Class of executed instruction
system.cpu0.op_class::SimdFloatAdd                  0      0.00%     76.66% # Class of executed instruction
system.cpu0.op_class::SimdFloatAlu                  0      0.00%     76.66% # Class of executed instruction
system.cpu0.op_class::SimdFloatCmp                  0      0.00%     76.66% # Class of executed instruction
system.cpu0.op_class::SimdFloatCvt                  0      0.00%     76.66% # Class of executed instruction
system.cpu0.op_class::SimdFloatDiv                  0      0.00%     76.66% # Class of executed instruction
system.cpu0.op_class::SimdFloatMisc                 0      0.00%     76.66% # Class of executed instruction
system.cpu0.op_class::SimdFloatMult                 0      0.00%     76.66% # Class of executed instruction
system.cpu0.op_class::SimdFloatMultAcc              0      0.00%     76.66% # Class of executed instruction
system.cpu0.op_class::SimdFloatSqrt                 0      0.00%     76.66% # Class of executed instruction
system.cpu0.op_class::MemRead               476780917     14.92%     91.58% # Class of executed instruction
system.cpu0.op_class::MemWrite              268983911      8.42%    100.00% # Class of executed instruction
system.cpu0.op_class::IprAccess                     0      0.00%    100.00% # Class of executed instruction
system.cpu0.op_class::InstPrefetch                  0      0.00%    100.00% # Class of executed instruction
system.cpu0.op_class::total                3195904778                       # Class of executed instruction
system.cpu1.apic_clk_domain.clock                8000                       # Clock period in ticks
system.cpu1.numCycles                      5319344922                       # number of cpu cycles simulated
system.cpu1.numWorkItemsStarted                     0                       # number of work items this cpu started
system.cpu1.numWorkItemsCompleted                   0                       # number of work items this cpu completed
system.cpu1.committedInsts                  414476075                       # Number of instructions committed
system.cpu1.committedOps                    826225945                       # Number of ops (including micro ops) committed
system.cpu1.num_int_alu_accesses            639295762                       # Number of integer alu accesses
system.cpu1.num_fp_alu_accesses             437543750                       # Number of float alu accesses
system.cpu1.num_func_calls                     970937                       # number of times a function call or return occured
system.cpu1.num_conditional_control_insts     47026006                       # number of instructions that are conditional controls
system.cpu1.num_int_insts                   639295762                       # number of integer instructions
system.cpu1.num_fp_insts                    437543750                       # number of float instructions
system.cpu1.num_int_register_reads         1204632605                       # number of times the integer registers were read
system.cpu1.num_int_register_writes         341120169                       # number of times the integer registers were written
system.cpu1.num_fp_register_reads           622856196                       # number of times the floating registers were read
system.cpu1.num_fp_register_writes          371919154                       # number of times the floating registers were written
system.cpu1.num_cc_register_reads           282641585                       # number of times the CC registers were read
system.cpu1.num_cc_register_writes          282491040                       # number of times the CC registers were written
system.cpu1.num_mem_refs                    252930453                       # number of memory refs
system.cpu1.num_load_insts                  186820034                       # Number of load instructions
system.cpu1.num_store_insts                  66110419                       # Number of store instructions
system.cpu1.num_idle_cycles              2844443470.754450                       # Number of idle cycles
system.cpu1.num_busy_cycles              2474901451.245550                       # Number of busy cycles
system.cpu1.not_idle_fraction                0.465264                       # Percentage of non-idle cycles
system.cpu1.idle_fraction                    0.534736                       # Percentage of idle cycles
system.cpu1.Branches                         48507651                       # Number of branches fetched
system.cpu1.op_class::No_OpClass                    9      0.00%      0.00% # Class of executed instruction
system.cpu1.op_class::IntAlu                384933795     46.59%     46.59% # Class of executed instruction
system.cpu1.op_class::IntMult                 1431429      0.17%     46.76% # Class of executed instruction
system.cpu1.op_class::IntDiv                       63      0.00%     46.76% # Class of executed instruction
system.cpu1.op_class::FloatAdd              186930196     22.62%     69.39% # Class of executed instruction
system.cpu1.op_class::FloatCmp                      0      0.00%     69.39% # Class of executed instruction
system.cpu1.op_class::FloatCvt                      0      0.00%     69.39% # Class of executed instruction
system.cpu1.op_class::FloatMult                     0      0.00%     69.39% # Class of executed instruction
system.cpu1.op_class::FloatDiv                      0      0.00%     69.39% # Class of executed instruction
system.cpu1.op_class::FloatSqrt                     0      0.00%     69.39% # Class of executed instruction
system.cpu1.op_class::SimdAdd                       0      0.00%     69.39% # Class of executed instruction
system.cpu1.op_class::SimdAddAcc                    0      0.00%     69.39% # Class of executed instruction
system.cpu1.op_class::SimdAlu                       0      0.00%     69.39% # Class of executed instruction
system.cpu1.op_class::SimdCmp                       0      0.00%     69.39% # Class of executed instruction
system.cpu1.op_class::SimdCvt                       0      0.00%     69.39% # Class of executed instruction
system.cpu1.op_class::SimdMisc                      0      0.00%     69.39% # Class of executed instruction
system.cpu1.op_class::SimdMult                      0      0.00%     69.39% # Class of executed instruction
system.cpu1.op_class::SimdMultAcc                   0      0.00%     69.39% # Class of executed instruction
system.cpu1.op_class::SimdShift                     0      0.00%     69.39% # Class of executed instruction
system.cpu1.op_class::SimdShiftAcc                  0      0.00%     69.39% # Class of executed instruction
system.cpu1.op_class::SimdSqrt                      0      0.00%     69.39% # Class of executed instruction
system.cpu1.op_class::SimdFloatAdd                  0      0.00%     69.39% # Class of executed instruction
system.cpu1.op_class::SimdFloatAlu                  0      0.00%     69.39% # Class of executed instruction
system.cpu1.op_class::SimdFloatCmp                  0      0.00%     69.39% # Class of executed instruction
system.cpu1.op_class::SimdFloatCvt                  0      0.00%     69.39% # Class of executed instruction
system.cpu1.op_class::SimdFloatDiv                  0      0.00%     69.39% # Class of executed instruction
system.cpu1.op_class::SimdFloatMisc                 0      0.00%     69.39% # Class of executed instruction
system.cpu1.op_class::SimdFloatMult                 0      0.00%     69.39% # Class of executed instruction
system.cpu1.op_class::SimdFloatMultAcc              0      0.00%     69.39% # Class of executed instruction
system.cpu1.op_class::SimdFloatSqrt                 0      0.00%     69.39% # Class of executed instruction
system.cpu1.op_class::MemRead               186820034     22.61%     92.00% # Class of executed instruction
system.cpu1.op_class::MemWrite               66110419      8.00%    100.00% # Class of executed instruction
system.cpu1.op_class::IprAccess                     0      0.00%    100.00% # Class of executed instruction
system.cpu1.op_class::InstPrefetch                  0      0.00%    100.00% # Class of executed instruction
system.cpu1.op_class::total                 826225945                       # Class of executed instruction
system.ruby.clk_domain.clock                      500                       # Clock period in ticks
system.ruby.delayHist::bucket_size                  8                       # delay histogram for all message
system.ruby.delayHist::max_bucket                  79                       # delay histogram for all message
system.ruby.delayHist::samples               96564999                       # delay histogram for all message
system.ruby.delayHist::mean                  0.489667                       # delay histogram for all message
system.ruby.delayHist::stdev                 1.917690                       # delay histogram for all message
system.ruby.delayHist                    |    90655582     93.88%     93.88% |     5909383      6.12%    100.00% |          12      0.00%    100.00% |           8      0.00%    100.00% |          11      0.00%    100.00% |           3      0.00%    100.00% |           0      0.00%    100.00% |           0      0.00%    100.00% |           0      0.00%    100.00% |           0      0.00%    100.00% # delay histogram for all message
system.ruby.delayHist::total                 96564999                       # delay histogram for all message
system.ruby.outstanding_req_hist::bucket_size            1                      
system.ruby.outstanding_req_hist::max_bucket            9                      
system.ruby.outstanding_req_hist::samples   3376794955                      
system.ruby.outstanding_req_hist::mean       1.000699                      
system.ruby.outstanding_req_hist::gmean      1.000484                      
system.ruby.outstanding_req_hist::stdev      0.026424                      
system.ruby.outstanding_req_hist         |           0      0.00%      0.00% |  3374435603     99.93%     99.93% |     2359352      0.07%    100.00% |           0      0.00%    100.00% |           0      0.00%    100.00% |           0      0.00%    100.00% |           0      0.00%    100.00% |           0      0.00%    100.00% |           0      0.00%    100.00% |           0      0.00%    100.00%
system.ruby.outstanding_req_hist::total    3376794955                      
system.ruby.latency_hist::bucket_size             256                      
system.ruby.latency_hist::max_bucket             2559                      
system.ruby.latency_hist::samples          3376794955                      
system.ruby.latency_hist::mean               1.309255                      
system.ruby.latency_hist::gmean              1.016422                      
system.ruby.latency_hist::stdev              6.930386                      
system.ruby.latency_hist                 |  3376492603     99.99%     99.99% |      215840      0.01%    100.00% |       84559      0.00%    100.00% |        1124      0.00%    100.00% |         827      0.00%    100.00% |           2      0.00%    100.00% |           0      0.00%    100.00% |           0      0.00%    100.00% |           0      0.00%    100.00% |           0      0.00%    100.00%
system.ruby.latency_hist::total            3376794955                      
system.ruby.hit_latency_hist::bucket_size          256                      
system.ruby.hit_latency_hist::max_bucket         2559                      
system.ruby.hit_latency_hist::samples      3376794955                      
system.ruby.hit_latency_hist::mean           1.309255                      
system.ruby.hit_latency_hist::gmean          1.016422                      
system.ruby.hit_latency_hist::stdev          6.930386                      
system.ruby.hit_latency_hist             |  3376492603     99.99%     99.99% |      215840      0.01%    100.00% |       84559      0.00%    100.00% |        1124      0.00%    100.00% |         827      0.00%    100.00% |           2      0.00%    100.00% |           0      0.00%    100.00% |           0      0.00%    100.00% |           0      0.00%    100.00% |           0      0.00%    100.00%
system.ruby.hit_latency_hist::total        3376794955                      
system.ruby.l0_cntrl0.Dcache.demand_hits    744617937                       # Number of cache demand hits
system.ruby.l0_cntrl0.Dcache.demand_misses      1146947                       # Number of cache demand misses
system.ruby.l0_cntrl0.Dcache.demand_accesses    745764884                       # Number of cache demand accesses
system.ruby.l0_cntrl0.Icache.demand_hits   1833243702                       # Number of cache demand hits
system.ruby.l0_cntrl0.Icache.demand_misses         5283                       # Number of cache demand misses
system.ruby.l0_cntrl0.Icache.demand_accesses   1833248985                       # Number of cache demand accesses
system.ruby.l0_cntrl0.Zcache.demand_hits            0                       # Number of cache demand hits
system.ruby.l0_cntrl0.Zcache.demand_misses            0                       # Number of cache demand misses
system.ruby.l0_cntrl0.Zcache.demand_accesses            0                       # Number of cache demand accesses
system.ruby.l0_cntrl1.Dcache.demand_hits    242260074                       # Number of cache demand hits
system.ruby.l0_cntrl1.Dcache.demand_misses     13029675                       # Number of cache demand misses
system.ruby.l0_cntrl1.Dcache.demand_accesses    255289749                       # Number of cache demand accesses
system.ruby.l0_cntrl1.Icache.demand_hits    542476357                       # Number of cache demand hits
system.ruby.l0_cntrl1.Icache.demand_misses        14980                       # Number of cache demand misses
system.ruby.l0_cntrl1.Icache.demand_accesses    542491337                       # Number of cache demand accesses
system.ruby.l0_cntrl1.Zcache.demand_hits            0                       # Number of cache demand hits
system.ruby.l0_cntrl1.Zcache.demand_misses            0                       # Number of cache demand misses
system.ruby.l0_cntrl1.Zcache.demand_accesses            0                       # Number of cache demand accesses
system.ruby.l1_cntrl0.cache.demand_hits         59141                       # Number of cache demand hits
system.ruby.l1_cntrl0.cache.demand_misses      1093089                       # Number of cache demand misses
system.ruby.l1_cntrl0.cache.demand_accesses      1152230                       # Number of cache demand accesses
system.ruby.l1_cntrl1.cache.demand_hits        248329                       # Number of cache demand hits
system.ruby.l1_cntrl1.cache.demand_misses     12796326                       # Number of cache demand misses
system.ruby.l1_cntrl1.cache.demand_accesses     13044655                       # Number of cache demand accesses
system.ruby.l2_cntrl0.L2cache.demand_hits      7412145                       # Number of cache demand hits
system.ruby.l2_cntrl0.L2cache.demand_misses      6477270                       # Number of cache demand misses
system.ruby.l2_cntrl0.L2cache.demand_accesses     13889415                       # Number of cache demand accesses
system.ruby.l2_cntrl0.fully_busy_cycles             3                       # cycles for which number of transistions == max transitions
system.ruby.memctrl_clk_domain.clock             1500                       # Clock period in ticks
system.ruby.network.routers0.percent_links_utilized            0                      
system.ruby.network.routers1.percent_links_utilized            0                      
system.ruby.network.routers2.percent_links_utilized     0.107790                      
system.ruby.network.routers2.msg_count.Control::0      1093089                      
system.ruby.network.routers2.msg_count.Request_Control::2         5335                      
system.ruby.network.routers2.msg_count.Response_Data::1      1093141                      
system.ruby.network.routers2.msg_count.Response_Control::1      1088014                      
system.ruby.network.routers2.msg_count.Response_Control::2      1093089                      
system.ruby.network.routers2.msg_count.Writeback_Data::0      1086481                      
system.ruby.network.routers2.msg_count.Writeback_Data::1         4370                      
system.ruby.network.routers2.msg_count.Writeback_Control::0          571                      
system.ruby.network.routers2.msg_bytes.Control::0      8744712                      
system.ruby.network.routers2.msg_bytes.Request_Control::2        42680                      
system.ruby.network.routers2.msg_bytes.Response_Data::1     78706152                      
system.ruby.network.routers2.msg_bytes.Response_Control::1      8704112                      
system.ruby.network.routers2.msg_bytes.Response_Control::2      8744712                      
system.ruby.network.routers2.msg_bytes.Writeback_Data::0     78226632                      
system.ruby.network.routers2.msg_bytes.Writeback_Data::1       314640                      
system.ruby.network.routers2.msg_bytes.Writeback_Control::0         4568                      
system.ruby.network.routers3.percent_links_utilized     0.963059                      
system.ruby.network.routers3.msg_count.Control::0     12796326                      
system.ruby.network.routers3.msg_count.Request_Control::2          113                      
system.ruby.network.routers3.msg_count.Response_Data::1     12796414                      
system.ruby.network.routers3.msg_count.Response_Control::1     12791184                      
system.ruby.network.routers3.msg_count.Response_Control::2     12795259                      
system.ruby.network.routers3.msg_count.Writeback_Data::0      4822775                      
system.ruby.network.routers3.msg_count.Writeback_Control::0      7968333                      
system.ruby.network.routers3.msg_bytes.Control::0    102370608                      
system.ruby.network.routers3.msg_bytes.Request_Control::2          904                      
system.ruby.network.routers3.msg_bytes.Response_Data::1    921341808                      
system.ruby.network.routers3.msg_bytes.Response_Control::1    102329472                      
system.ruby.network.routers3.msg_bytes.Response_Control::2    102362072                      
system.ruby.network.routers3.msg_bytes.Writeback_Data::0    347239800                      
system.ruby.network.routers3.msg_bytes.Writeback_Control::0     63746664                      
system.ruby.network.routers4.percent_links_utilized     1.552176                      
system.ruby.network.routers4.msg_count.Control::0     20366599                      
system.ruby.network.routers4.msg_count.Request_Control::2         5400                      
system.ruby.network.routers4.msg_count.Response_Data::1     23518894                      
system.ruby.network.routers4.msg_count.Response_Control::1     23156905                      
system.ruby.network.routers4.msg_count.Response_Control::2     13888348                      
system.ruby.network.routers4.msg_count.Writeback_Data::0      5909256                      
system.ruby.network.routers4.msg_count.Writeback_Data::1         4370                      
system.ruby.network.routers4.msg_count.Writeback_Control::0      7968904                      
system.ruby.network.routers4.msg_bytes.Control::0    162932792                      
system.ruby.network.routers4.msg_bytes.Request_Control::2        43200                      
system.ruby.network.routers4.msg_bytes.Response_Data::1   1693360368                      
system.ruby.network.routers4.msg_bytes.Response_Control::1    185255240                      
system.ruby.network.routers4.msg_bytes.Response_Control::2    111106784                      
system.ruby.network.routers4.msg_bytes.Writeback_Data::0    425466432                      
system.ruby.network.routers4.msg_bytes.Writeback_Data::1       314640                      
system.ruby.network.routers4.msg_bytes.Writeback_Control::0     63751232                      
system.ruby.network.routers5.percent_links_utilized     0.481335                      
system.ruby.network.routers5.msg_count.Control::0      6477184                      
system.ruby.network.routers5.msg_count.Response_Data::1      9629511                      
system.ruby.network.routers5.msg_count.Response_Control::1      9277753                      
system.ruby.network.routers5.msg_bytes.Control::0     51817472                      
system.ruby.network.routers5.msg_bytes.Response_Data::1    693324792                      
system.ruby.network.routers5.msg_bytes.Response_Control::1     74222024                      
system.ruby.network.routers6.percent_links_utilized     0.517393                      
system.ruby.network.routers6.msg_count.Control::0     20366599                      
system.ruby.network.routers6.msg_count.Request_Control::2         5448                      
system.ruby.network.routers6.msg_count.Response_Data::1     23518980                      
system.ruby.network.routers6.msg_count.Response_Control::1     23156928                      
system.ruby.network.routers6.msg_count.Response_Control::2     13888348                      
system.ruby.network.routers6.msg_count.Writeback_Data::0      5909256                      
system.ruby.network.routers6.msg_count.Writeback_Data::1         4370                      
system.ruby.network.routers6.msg_count.Writeback_Control::0      7968904                      
system.ruby.network.routers6.msg_bytes.Control::0    162932792                      
system.ruby.network.routers6.msg_bytes.Request_Control::2        43584                      
system.ruby.network.routers6.msg_bytes.Response_Data::1   1693366560                      
system.ruby.network.routers6.msg_bytes.Response_Control::1    185255424                      
system.ruby.network.routers6.msg_bytes.Response_Control::2    111106784                      
system.ruby.network.routers6.msg_bytes.Writeback_Data::0    425466432                      
system.ruby.network.routers6.msg_bytes.Writeback_Data::1       314640                      
system.ruby.network.routers6.msg_bytes.Writeback_Control::0     63751232                      
system.ruby.network.msg_count.Control        61099797                      
system.ruby.network.msg_count.Request_Control        16296                      
system.ruby.network.msg_count.Response_Data     70556940                      
system.ruby.network.msg_count.Response_Control    111135828                      
system.ruby.network.msg_count.Writeback_Data     17740878                      
system.ruby.network.msg_count.Writeback_Control     23906712                      
system.ruby.network.msg_byte.Control        488798376                      
system.ruby.network.msg_byte.Request_Control       130368                      
system.ruby.network.msg_byte.Response_Data   5080099680                      
system.ruby.network.msg_byte.Response_Control    889086624                      
system.ruby.network.msg_byte.Writeback_Data   1277343216                      
system.ruby.network.msg_byte.Writeback_Control    191253696                      
system.ruby.network.routers0.throttle0.link_utilization            0                      
system.ruby.network.routers0.throttle1.link_utilization            0                      
system.ruby.network.routers1.throttle0.link_utilization            0                      
system.ruby.network.routers1.throttle1.link_utilization            0                      
system.ruby.network.routers2.throttle0.link_utilization     0.102734                      
system.ruby.network.routers2.throttle0.msg_count.Request_Control::2         5335                      
system.ruby.network.routers2.throttle0.msg_count.Response_Data::1      1093071                      
system.ruby.network.routers2.throttle0.msg_count.Response_Control::1      1087088                      
system.ruby.network.routers2.throttle0.msg_bytes.Request_Control::2        42680                      
system.ruby.network.routers2.throttle0.msg_bytes.Response_Data::1     78701112                      
system.ruby.network.routers2.throttle0.msg_bytes.Response_Control::1      8696704                      
system.ruby.network.routers2.throttle1.link_utilization     0.112846                      
system.ruby.network.routers2.throttle1.msg_count.Control::0      1093089                      
system.ruby.network.routers2.throttle1.msg_count.Response_Data::1           70                      
system.ruby.network.routers2.throttle1.msg_count.Response_Control::1          926                      
system.ruby.network.routers2.throttle1.msg_count.Response_Control::2      1093089                      
system.ruby.network.routers2.throttle1.msg_count.Writeback_Data::0      1086481                      
system.ruby.network.routers2.throttle1.msg_count.Writeback_Data::1         4370                      
system.ruby.network.routers2.throttle1.msg_count.Writeback_Control::0          571                      
system.ruby.network.routers2.throttle1.msg_bytes.Control::0      8744712                      
system.ruby.network.routers2.throttle1.msg_bytes.Response_Data::1         5040                      
system.ruby.network.routers2.throttle1.msg_bytes.Response_Control::1         7408                      
system.ruby.network.routers2.throttle1.msg_bytes.Response_Control::2      8744712                      
system.ruby.network.routers2.throttle1.msg_bytes.Writeback_Data::0     78226632                      
system.ruby.network.routers2.throttle1.msg_bytes.Writeback_Data::1       314640                      
system.ruby.network.routers2.throttle1.msg_bytes.Writeback_Control::0         4568                      
system.ruby.network.routers3.throttle0.link_utilization     1.202702                      
system.ruby.network.routers3.throttle0.msg_count.Request_Control::2          113                      
system.ruby.network.routers3.throttle0.msg_count.Response_Data::1     12796321                      
system.ruby.network.routers3.throttle0.msg_count.Response_Control::1     12791118                      
system.ruby.network.routers3.throttle0.msg_bytes.Request_Control::2          904                      
system.ruby.network.routers3.throttle0.msg_bytes.Response_Data::1    921335112                      
system.ruby.network.routers3.throttle0.msg_bytes.Response_Control::1    102328944                      
system.ruby.network.routers3.throttle1.link_utilization     0.723416                      
system.ruby.network.routers3.throttle1.msg_count.Control::0     12796326                      
system.ruby.network.routers3.throttle1.msg_count.Response_Data::1           93                      
system.ruby.network.routers3.throttle1.msg_count.Response_Control::1           66                      
system.ruby.network.routers3.throttle1.msg_count.Response_Control::2     12795259                      
system.ruby.network.routers3.throttle1.msg_count.Writeback_Data::0      4822775                      
system.ruby.network.routers3.throttle1.msg_count.Writeback_Control::0      7968333                      
system.ruby.network.routers3.throttle1.msg_bytes.Control::0    102370608                      
system.ruby.network.routers3.throttle1.msg_bytes.Response_Data::1         6696                      
system.ruby.network.routers3.throttle1.msg_bytes.Response_Control::1          528                      
system.ruby.network.routers3.throttle1.msg_bytes.Response_Control::2    102362072                      
system.ruby.network.routers3.throttle1.msg_bytes.Writeback_Data::0    347239800                      
system.ruby.network.routers3.throttle1.msg_bytes.Writeback_Control::0     63746664                      
system.ruby.network.routers4.throttle0.link_utilization     1.442593                      
system.ruby.network.routers4.throttle0.msg_count.Control::0     13889415                      
system.ruby.network.routers4.throttle0.msg_count.Response_Data::1      6477261                      
system.ruby.network.routers4.throttle0.msg_count.Response_Control::1      6216009                      
system.ruby.network.routers4.throttle0.msg_count.Response_Control::2     13888348                      
system.ruby.network.routers4.throttle0.msg_count.Writeback_Data::0      5909256                      
system.ruby.network.routers4.throttle0.msg_count.Writeback_Data::1         4370                      
system.ruby.network.routers4.throttle0.msg_count.Writeback_Control::0      7968904                      
system.ruby.network.routers4.throttle0.msg_bytes.Control::0    111115320                      
system.ruby.network.routers4.throttle0.msg_bytes.Response_Data::1    466362792                      
system.ruby.network.routers4.throttle0.msg_bytes.Response_Control::1     49728072                      
system.ruby.network.routers4.throttle0.msg_bytes.Response_Control::2    111106784                      
system.ruby.network.routers4.throttle0.msg_bytes.Writeback_Data::0    425466432                      
system.ruby.network.routers4.throttle0.msg_bytes.Writeback_Data::1       314640                      
system.ruby.network.routers4.throttle0.msg_bytes.Writeback_Control::0     63751232                      
system.ruby.network.routers4.throttle1.link_utilization     1.661759                      
system.ruby.network.routers4.throttle1.msg_count.Control::0      6477184                      
system.ruby.network.routers4.throttle1.msg_count.Request_Control::2         5400                      
system.ruby.network.routers4.throttle1.msg_count.Response_Data::1     17041633                      
system.ruby.network.routers4.throttle1.msg_count.Response_Control::1     16940896                      
system.ruby.network.routers4.throttle1.msg_bytes.Control::0     51817472                      
system.ruby.network.routers4.throttle1.msg_bytes.Request_Control::2        43200                      
system.ruby.network.routers4.throttle1.msg_bytes.Response_Data::1   1226997576                      
system.ruby.network.routers4.throttle1.msg_bytes.Response_Control::1    135527168                      
system.ruby.network.routers5.throttle0.link_utilization     0.356331                      
system.ruby.network.routers5.throttle0.msg_count.Control::0      6477184                      
system.ruby.network.routers5.throttle0.msg_count.Response_Data::1      3152327                      
system.ruby.network.routers5.throttle0.msg_count.Response_Control::1      3062713                      
system.ruby.network.routers5.throttle0.msg_bytes.Control::0     51817472                      
system.ruby.network.routers5.throttle0.msg_bytes.Response_Data::1    226967544                      
system.ruby.network.routers5.throttle0.msg_bytes.Response_Control::1     24501704                      
system.ruby.network.routers5.throttle1.link_utilization     0.606339                      
system.ruby.network.routers5.throttle1.msg_count.Response_Data::1      6477184                      
system.ruby.network.routers5.throttle1.msg_count.Response_Control::1      6215040                      
system.ruby.network.routers5.throttle1.msg_bytes.Response_Data::1    466357248                      
system.ruby.network.routers5.throttle1.msg_bytes.Response_Control::1     49720320                      
system.ruby.network.routers6.throttle0.link_utilization            0                      
system.ruby.network.routers6.throttle1.link_utilization            0                      
system.ruby.network.routers6.throttle2.link_utilization     0.102734                      
system.ruby.network.routers6.throttle2.msg_count.Request_Control::2         5335                      
system.ruby.network.routers6.throttle2.msg_count.Response_Data::1      1093071                      
system.ruby.network.routers6.throttle2.msg_count.Response_Control::1      1087088                      
system.ruby.network.routers6.throttle2.msg_bytes.Request_Control::2        42680                      
system.ruby.network.routers6.throttle2.msg_bytes.Response_Data::1     78701112                      
system.ruby.network.routers6.throttle2.msg_bytes.Response_Control::1      8696704                      
system.ruby.network.routers6.throttle3.link_utilization     1.202702                      
system.ruby.network.routers6.throttle3.msg_count.Request_Control::2          113                      
system.ruby.network.routers6.throttle3.msg_count.Response_Data::1     12796321                      
system.ruby.network.routers6.throttle3.msg_count.Response_Control::1     12791118                      
system.ruby.network.routers6.throttle3.msg_bytes.Request_Control::2          904                      
system.ruby.network.routers6.throttle3.msg_bytes.Response_Data::1    921335112                      
system.ruby.network.routers6.throttle3.msg_bytes.Response_Control::1    102328944                      
system.ruby.network.routers6.throttle4.link_utilization     1.442593                      
system.ruby.network.routers6.throttle4.msg_count.Control::0     13889415                      
system.ruby.network.routers6.throttle4.msg_count.Response_Data::1      6477261                      
system.ruby.network.routers6.throttle4.msg_count.Response_Control::1      6216009                      
system.ruby.network.routers6.throttle4.msg_count.Response_Control::2     13888348                      
system.ruby.network.routers6.throttle4.msg_count.Writeback_Data::0      5909256                      
system.ruby.network.routers6.throttle4.msg_count.Writeback_Data::1         4370                      
system.ruby.network.routers6.throttle4.msg_count.Writeback_Control::0      7968904                      
system.ruby.network.routers6.throttle4.msg_bytes.Control::0    111115320                      
system.ruby.network.routers6.throttle4.msg_bytes.Response_Data::1    466362792                      
system.ruby.network.routers6.throttle4.msg_bytes.Response_Control::1     49728072                      
system.ruby.network.routers6.throttle4.msg_bytes.Response_Control::2    111106784                      
system.ruby.network.routers6.throttle4.msg_bytes.Writeback_Data::0    425466432                      
system.ruby.network.routers6.throttle4.msg_bytes.Writeback_Data::1       314640                      
system.ruby.network.routers6.throttle4.msg_bytes.Writeback_Control::0     63751232                      
system.ruby.network.routers6.throttle5.link_utilization     0.356331                      
system.ruby.network.routers6.throttle5.msg_count.Control::0      6477184                      
system.ruby.network.routers6.throttle5.msg_count.Response_Data::1      3152327                      
system.ruby.network.routers6.throttle5.msg_count.Response_Control::1      3062713                      
system.ruby.network.routers6.throttle5.msg_bytes.Control::0     51817472                      
system.ruby.network.routers6.throttle5.msg_bytes.Response_Data::1    226967544                      
system.ruby.network.routers6.throttle5.msg_bytes.Response_Control::1     24501704                      
system.ruby.delayVCHist.vnet_0::bucket_size            8                       # delay histogram for vnet_0
system.ruby.delayVCHist.vnet_0::max_bucket           79                       # delay histogram for vnet_0
system.ruby.delayVCHist.vnet_0::samples      41655923                       # delay histogram for vnet_0
system.ruby.delayVCHist.vnet_0::mean         1.134900                       # delay histogram for vnet_0
system.ruby.delayVCHist.vnet_0::stdev        2.791367                       # delay histogram for vnet_0
system.ruby.delayVCHist.vnet_0           |    35746613     85.81%     85.81% |     5909276     14.19%    100.00% |          12      0.00%    100.00% |           8      0.00%    100.00% |          11      0.00%    100.00% |           3      0.00%    100.00% |           0      0.00%    100.00% |           0      0.00%    100.00% |           0      0.00%    100.00% |           0      0.00%    100.00% # delay histogram for vnet_0
system.ruby.delayVCHist.vnet_0::total        41655923                       # delay histogram for vnet_0
system.ruby.delayVCHist.vnet_1::bucket_size            1                       # delay histogram for vnet_1
system.ruby.delayVCHist.vnet_1::max_bucket            9                       # delay histogram for vnet_1
system.ruby.delayVCHist.vnet_1::samples      54662123                       # delay histogram for vnet_1
system.ruby.delayVCHist.vnet_1::mean         0.000014                       # delay histogram for vnet_1
system.ruby.delayVCHist.vnet_1::stdev        0.010657                       # delay histogram for vnet_1
system.ruby.delayVCHist.vnet_1           |    54662026    100.00%    100.00% |           0      0.00%    100.00% |           0      0.00%    100.00% |           0      0.00%    100.00% |           0      0.00%    100.00% |           0      0.00%    100.00% |           0      0.00%    100.00% |           0      0.00%    100.00% |          97      0.00%    100.00% |           0      0.00%    100.00% # delay histogram for vnet_1
system.ruby.delayVCHist.vnet_1::total        54662123                       # delay histogram for vnet_1
system.ruby.delayVCHist.vnet_2::bucket_size            2                       # delay histogram for vnet_2
system.ruby.delayVCHist.vnet_2::max_bucket           19                       # delay histogram for vnet_2
system.ruby.delayVCHist.vnet_2::samples        246953                       # delay histogram for vnet_2
system.ruby.delayVCHist.vnet_2::mean         0.034743                       # delay histogram for vnet_2
system.ruby.delayVCHist.vnet_2::stdev        0.422593                       # delay histogram for vnet_2
system.ruby.delayVCHist.vnet_2           |      245257     99.31%     99.31% |           0      0.00%     99.31% |        1686      0.68%    100.00% |           0      0.00%    100.00% |           0      0.00%    100.00% |           0      0.00%    100.00% |           0      0.00%    100.00% |          10      0.00%    100.00% |           0      0.00%    100.00% |           0      0.00%    100.00% # delay histogram for vnet_2
system.ruby.delayVCHist.vnet_2::total          246953                       # delay histogram for vnet_2
system.ruby.LD.latency_hist::bucket_size          128                      
system.ruby.LD.latency_hist::max_bucket          1279                      
system.ruby.LD.latency_hist::samples        640017603                      
system.ruby.LD.latency_hist::mean            2.376526                      
system.ruby.LD.latency_hist::gmean           1.080376                      
system.ruby.LD.latency_hist::stdev          14.191560                      
system.ruby.LD.latency_hist              |   639470034     99.91%     99.91% |      319307      0.05%     99.96% |       67515      0.01%     99.97% |       89613      0.01%     99.99% |       43307      0.01%    100.00% |       26092      0.00%    100.00% |         212      0.00%    100.00% |         865      0.00%    100.00% |         635      0.00%    100.00% |          23      0.00%    100.00%
system.ruby.LD.latency_hist::total          640017603                      
system.ruby.LD.hit_latency_hist::bucket_size          128                      
system.ruby.LD.hit_latency_hist::max_bucket         1279                      
system.ruby.LD.hit_latency_hist::samples    640017603                      
system.ruby.LD.hit_latency_hist::mean        2.376526                      
system.ruby.LD.hit_latency_hist::gmean       1.080376                      
system.ruby.LD.hit_latency_hist::stdev      14.191560                      
system.ruby.LD.hit_latency_hist          |   639470034     99.91%     99.91% |      319307      0.05%     99.96% |       67515      0.01%     99.97% |       89613      0.01%     99.99% |       43307      0.01%    100.00% |       26092      0.00%    100.00% |         212      0.00%    100.00% |         865      0.00%    100.00% |         635      0.00%    100.00% |          23      0.00%    100.00%
system.ruby.LD.hit_latency_hist::total      640017603                      
system.ruby.ST.latency_hist::bucket_size          256                      
system.ruby.ST.latency_hist::max_bucket          2559                      
system.ruby.ST.latency_hist::samples        310331973                      
system.ruby.ST.latency_hist::mean            1.523892                      
system.ruby.ST.latency_hist::gmean           1.017735                      
system.ruby.ST.latency_hist::stdev          10.194761                      
system.ruby.ST.latency_hist              |   310257934     99.98%     99.98% |       58686      0.02%    100.00% |       15135      0.00%    100.00% |          47      0.00%    100.00% |         169      0.00%    100.00% |           2      0.00%    100.00% |           0      0.00%    100.00% |           0      0.00%    100.00% |           0      0.00%    100.00% |           0      0.00%    100.00%
system.ruby.ST.latency_hist::total          310331973                      
system.ruby.ST.hit_latency_hist::bucket_size          256                      
system.ruby.ST.hit_latency_hist::max_bucket         2559                      
system.ruby.ST.hit_latency_hist::samples    310331973                      
system.ruby.ST.hit_latency_hist::mean        1.523892                      
system.ruby.ST.hit_latency_hist::gmean       1.017735                      
system.ruby.ST.hit_latency_hist::stdev      10.194761                      
[...]
system.ruby.L0Cache_Controller.S.Store::total           23                      
system.ruby.L0Cache_Controller.S.Inv     |          24      2.76%      2.76% |         845     97.24%    100.00%
system.ruby.L0Cache_Controller.S.Inv::total          869                      
system.ruby.L0Cache_Controller.S.L0_Replacement |           8      0.15%      0.15% |        5300     99.85%    100.00%
system.ruby.L0Cache_Controller.S.L0_Replacement::total         5308                      
system.ruby.L0Cache_Controller.E.Load    |   119917861     50.37%     50.37% |   118143122     49.63%    100.00%
system.ruby.L0Cache_Controller.E.Load::total    238060983                      
system.ruby.L0Cache_Controller.E.Ifetch  |  1833243595     77.17%     77.17% |   542475972     22.83%    100.00%
system.ruby.L0Cache_Controller.E.Ifetch::total   2375719567                      
system.ruby.L0Cache_Controller.E.Store   |       27887      0.59%      0.59% |     4684761     99.41%    100.00%
system.ruby.L0Cache_Controller.E.Store::total      4712648                      
system.ruby.L0Cache_Controller.E.Inv     |        4004      2.44%      2.44% |      160096     97.56%    100.00%
system.ruby.L0Cache_Controller.E.Inv::total       164100                      
system.ruby.L0Cache_Controller.E.L0_Replacement |        5847      0.07%      0.07% |     8176027     99.93%    100.00%
system.ruby.L0Cache_Controller.E.L0_Replacement::total      8181874                      
system.ruby.L0Cache_Controller.M.Load    |   288586757     83.55%     83.55% |    56837185     16.45%    100.00%
system.ruby.L0Cache_Controller.M.Load::total    345423942                      
system.ruby.L0Cache_Controller.M.Store   |   293194899     82.55%     82.55% |    61998166     17.45%    100.00%
system.ruby.L0Cache_Controller.M.Store::total    355193065                      
system.ruby.L0Cache_Controller.M.Inv     |        1966      2.58%      2.58% |       74307     97.42%    100.00%
system.ruby.L0Cache_Controller.M.Inv::total        76273                      
system.ruby.L0Cache_Controller.M.L0_Replacement |     1139772     19.76%     19.76% |     4627554     80.24%    100.00%
system.ruby.L0Cache_Controller.M.L0_Replacement::total      5767326                      
system.ruby.L0Cache_Controller.IS.Data   |          52      0.84%      0.84% |        6150     99.16%    100.00%
system.ruby.L0Cache_Controller.IS.Data::total         6202                      
system.ruby.L0Cache_Controller.IS.Data_Exclusive |       38216      0.29%      0.29% |    13021150     99.71%    100.00%
system.ruby.L0Cache_Controller.IS.Data_Exclusive::total     13059366                      
system.ruby.L0Cache_Controller.IM.Data_Exclusive |     1113944     98.47%     98.47% |       17350      1.53%    100.00%
system.ruby.L0Cache_Controller.IM.Data_Exclusive::total      1131294                      
system.ruby.L0Cache_Controller.SM.Data_Exclusive |          18     78.26%     78.26% |           5     21.74%    100.00%
system.ruby.L0Cache_Controller.SM.Data_Exclusive::total           23                      
system.ruby.L1Cache_Controller.Load      |       38268      0.29%      0.29% |    13027300     99.71%    100.00%
system.ruby.L1Cache_Controller.Load::total     13065568                      
system.ruby.L1Cache_Controller.Store     |     1113962     98.47%     98.47% |       17355      1.53%    100.00%
system.ruby.L1Cache_Controller.Store::total      1131317                      
system.ruby.L1Cache_Controller.WriteBack |     1145619      8.21%      8.21% |    12803581     91.79%    100.00%
system.ruby.L1Cache_Controller.WriteBack::total     13949200                      
system.ruby.L1Cache_Controller.L0_DataAck |        1966      2.58%      2.58% |       74307     97.42%    100.00%
system.ruby.L1Cache_Controller.L0_DataAck::total        76273                      
system.ruby.L1Cache_Controller.Inv       |        5296     98.77%     98.77% |          66      1.23%    100.00%
system.ruby.L1Cache_Controller.Inv::total         5362                      
system.ruby.L1Cache_Controller.L0_Invalidate_Own |        8642      1.80%      1.80% |      470956     98.20%    100.00%
system.ruby.L1Cache_Controller.L0_Invalidate_Own::total       479598                      
system.ruby.L1Cache_Controller.L0_Invalidate_Else |        3350     98.18%     98.18% |          62      1.82%    100.00%
system.ruby.L1Cache_Controller.L0_Invalidate_Else::total         3412                      
system.ruby.L1Cache_Controller.L1_Replacement |     1087052      7.83%      7.83% |    12792223     92.17%    100.00%
system.ruby.L1Cache_Controller.L1_Replacement::total     13879275                      
system.ruby.L1Cache_Controller.Fwd_GETX  |           8     88.89%     88.89% |           1     11.11%    100.00%
system.ruby.L1Cache_Controller.Fwd_GETX::total            9                      
system.ruby.L1Cache_Controller.Fwd_GETS  |          31     40.26%     40.26% |          46     59.74%    100.00%
system.ruby.L1Cache_Controller.Fwd_GETS::total           77                      
system.ruby.L1Cache_Controller.Data_Exclusive |        6269      0.05%      0.05% |    12784798     99.95%    100.00%
system.ruby.L1Cache_Controller.Data_Exclusive::total     12791067                      
system.ruby.L1Cache_Controller.DataS_fromL1 |          46     59.74%     59.74% |          31     40.26%    100.00%
system.ruby.L1Cache_Controller.DataS_fromL1::total           77                      
system.ruby.L1Cache_Controller.Data_all_Acks |     1086756     98.95%     98.95% |       11492      1.05%    100.00%
system.ruby.L1Cache_Controller.Data_all_Acks::total      1098248                      
system.ruby.L1Cache_Controller.L0_Ack    |        4030      2.44%      2.44% |      161202     97.56%    100.00%
system.ruby.L1Cache_Controller.L0_Ack::total       165232                      
system.ruby.L1Cache_Controller.Ack       |          18     78.26%     78.26% |           5     21.74%    100.00%
system.ruby.L1Cache_Controller.Ack::total           23                      
system.ruby.L1Cache_Controller.Ack_all   |          18     78.26%     78.26% |           5     21.74%    100.00%
system.ruby.L1Cache_Controller.Ack_all::total           23                      
system.ruby.L1Cache_Controller.WB_Ack    |     1087052      7.83%      7.83% |    12791108     92.17%    100.00%
system.ruby.L1Cache_Controller.WB_Ack::total     13878160                      
system.ruby.L1Cache_Controller.NP.Load   |        6310      0.05%      0.05% |    12785896     99.95%    100.00%
system.ruby.L1Cache_Controller.NP.Load::total     12792206                      
system.ruby.L1Cache_Controller.NP.Store  |     1086756     99.05%     99.05% |       10425      0.95%    100.00%
system.ruby.L1Cache_Controller.NP.Store::total      1097181                      
system.ruby.L1Cache_Controller.NP.Inv    |           0      0.00%      0.00% |          48    100.00%    100.00%
system.ruby.L1Cache_Controller.NP.Inv::total           48                      
system.ruby.L1Cache_Controller.I.Load    |           5    100.00%    100.00% |           0      0.00%    100.00%
system.ruby.L1Cache_Controller.I.Load::total            5                      
system.ruby.L1Cache_Controller.S.Load    |           2      0.04%      0.04% |        5039     99.96%    100.00%
system.ruby.L1Cache_Controller.S.Load::total         5041                      
system.ruby.L1Cache_Controller.S.Store   |          18     78.26%     78.26% |           5     21.74%    100.00%
system.ruby.L1Cache_Controller.S.Store::total           23                      
system.ruby.L1Cache_Controller.S.L0_Invalidate_Own |           0      0.00%      0.00% |        1106    100.00%    100.00%
system.ruby.L1Cache_Controller.S.L0_Invalidate_Own::total         1106                      
system.ruby.L1Cache_Controller.S.L0_Invalidate_Else |          26    100.00%    100.00% |           0      0.00%    100.00%
system.ruby.L1Cache_Controller.S.L0_Invalidate_Else::total           26                      
system.ruby.L1Cache_Controller.SS.Load   |           4     23.53%     23.53% |          13     76.47%    100.00%
system.ruby.L1Cache_Controller.SS.Load::total           17                      
system.ruby.L1Cache_Controller.SS.Inv    |          53     74.65%     74.65% |          18     25.35%    100.00%
system.ruby.L1Cache_Controller.SS.Inv::total           71                      
system.ruby.L1Cache_Controller.SS.L1_Replacement |           0      0.00%      0.00% |        1115    100.00%    100.00%
system.ruby.L1Cache_Controller.SS.L1_Replacement::total         1115                      
system.ruby.L1Cache_Controller.E.WriteBack |        1369      0.01%      0.01% |    12554256     99.99%    100.00%
system.ruby.L1Cache_Controller.E.WriteBack::total     12555625                      
system.ruby.L1Cache_Controller.E.L0_Invalidate_Own |        3499      1.50%      1.50% |      230257     98.50%    100.00%
system.ruby.L1Cache_Controller.E.L0_Invalidate_Own::total       233756                      
system.ruby.L1Cache_Controller.E.L0_Invalidate_Else |         943     98.54%     98.54% |          14      1.46%    100.00%
system.ruby.L1Cache_Controller.E.L0_Invalidate_Else::total          957                      
system.ruby.L1Cache_Controller.EE.Load   |           8    100.00%    100.00% |           0      0.00%    100.00%
system.ruby.L1Cache_Controller.EE.Load::total            8                      
system.ruby.L1Cache_Controller.EE.Inv    |         873    100.00%    100.00% |           0      0.00%    100.00%
system.ruby.L1Cache_Controller.EE.Inv::total          873                      
system.ruby.L1Cache_Controller.EE.L1_Replacement |        2969      1.85%      1.85% |      157519     98.15%    100.00%
system.ruby.L1Cache_Controller.EE.L1_Replacement::total       160488                      
system.ruby.L1Cache_Controller.EE.Fwd_GETX |           3    100.00%    100.00% |           0      0.00%    100.00%
system.ruby.L1Cache_Controller.EE.Fwd_GETX::total            3                      
system.ruby.L1Cache_Controller.EE.Fwd_GETS |          21     60.00%     60.00% |          14     40.00%    100.00%
system.ruby.L1Cache_Controller.EE.Fwd_GETS::total           35                      
system.ruby.L1Cache_Controller.M.WriteBack |     1144250     82.11%     82.11% |      249325     17.89%    100.00%
system.ruby.L1Cache_Controller.M.WriteBack::total      1393575                      
system.ruby.L1Cache_Controller.M.L0_Invalidate_Own |         822     16.65%     16.65% |        4115     83.35%    100.00%
system.ruby.L1Cache_Controller.M.L0_Invalidate_Own::total         4937                      
system.ruby.L1Cache_Controller.M.L0_Invalidate_Else |         706     97.65%     97.65% |          17      2.35%    100.00%
system.ruby.L1Cache_Controller.M.L0_Invalidate_Else::total          723                      
system.ruby.L1Cache_Controller.MM.Load   |       31939     11.90%     11.90% |      236352     88.10%    100.00%
system.ruby.L1Cache_Controller.MM.Load::total       268291                      
system.ruby.L1Cache_Controller.MM.Store  |       27188     79.70%     79.70% |        6925     20.30%    100.00%
system.ruby.L1Cache_Controller.MM.Store::total        34113                      
system.ruby.L1Cache_Controller.MM.Inv    |        4370    100.00%    100.00% |           0      0.00%    100.00%
system.ruby.L1Cache_Controller.MM.Inv::total         4370                      
system.ruby.L1Cache_Controller.MM.L1_Replacement |     1084083      7.90%      7.90% |    12633589     92.10%    100.00%
system.ruby.L1Cache_Controller.MM.L1_Replacement::total     13717672                      
system.ruby.L1Cache_Controller.MM.Fwd_GETX |           5     83.33%     83.33% |           1     16.67%    100.00%
system.ruby.L1Cache_Controller.MM.Fwd_GETX::total            6                      
system.ruby.L1Cache_Controller.MM.Fwd_GETS |          10     23.81%     23.81% |          32     76.19%    100.00%
system.ruby.L1Cache_Controller.MM.Fwd_GETS::total           42                      
system.ruby.L1Cache_Controller.IS.Data_Exclusive |        6269      0.05%      0.05% |    12784798     99.95%    100.00%
system.ruby.L1Cache_Controller.IS.Data_Exclusive::total     12791067                      
system.ruby.L1Cache_Controller.IS.DataS_fromL1 |          46     59.74%     59.74% |          31     40.26%    100.00%
system.ruby.L1Cache_Controller.IS.DataS_fromL1::total           77                      
system.ruby.L1Cache_Controller.IS.Data_all_Acks |           0      0.00%      0.00% |        1067    100.00%    100.00%
system.ruby.L1Cache_Controller.IS.Data_all_Acks::total         1067                      
system.ruby.L1Cache_Controller.IM.Data_all_Acks |     1086756     99.05%     99.05% |       10425      0.95%    100.00%
system.ruby.L1Cache_Controller.IM.Data_all_Acks::total      1097181                      
system.ruby.L1Cache_Controller.SM.Ack    |          18     78.26%     78.26% |           5     21.74%    100.00%
system.ruby.L1Cache_Controller.SM.Ack::total           23                      
system.ruby.L1Cache_Controller.SM.Ack_all |          18     78.26%     78.26% |           5     21.74%    100.00%
system.ruby.L1Cache_Controller.SM.Ack_all::total           23                      
system.ruby.L1Cache_Controller.M_I.WB_Ack |     1087052      7.83%      7.83% |    12791108     92.17%    100.00%
system.ruby.L1Cache_Controller.M_I.WB_Ack::total     13878160                      
system.ruby.L1Cache_Controller.S_IL0.L0_Invalidate_Own |           0      0.00%      0.00% |        1106    100.00%    100.00%
system.ruby.L1Cache_Controller.S_IL0.L0_Invalidate_Own::total         1106                      
system.ruby.L1Cache_Controller.S_IL0.L0_Invalidate_Else |          26    100.00%    100.00% |           0      0.00%    100.00%
system.ruby.L1Cache_Controller.S_IL0.L0_Invalidate_Else::total           26                      
system.ruby.L1Cache_Controller.S_IL0.L0_Ack |          26      2.30%      2.30% |        1106     97.70%    100.00%
system.ruby.L1Cache_Controller.S_IL0.L0_Ack::total         1132                      
system.ruby.L1Cache_Controller.E_IL0.L0_DataAck |         568      0.77%      0.77% |       72738     99.23%    100.00%
system.ruby.L1Cache_Controller.E_IL0.L0_DataAck::total        73306                      
system.ruby.L1Cache_Controller.E_IL0.L0_Invalidate_Own |        3499      1.50%      1.50% |      230257     98.50%    100.00%
system.ruby.L1Cache_Controller.E_IL0.L0_Invalidate_Own::total       233756                      
system.ruby.L1Cache_Controller.E_IL0.L0_Invalidate_Else |         943     98.54%     98.54% |          14      1.46%    100.00%
system.ruby.L1Cache_Controller.E_IL0.L0_Invalidate_Else::total          957                      
system.ruby.L1Cache_Controller.E_IL0.L0_Ack |        3874      2.40%      2.40% |      157533     97.60%    100.00%
system.ruby.L1Cache_Controller.E_IL0.L0_Ack::total       161407                      
system.ruby.L1Cache_Controller.M_IL0.L0_DataAck |        1398     47.12%     47.12% |        1569     52.88%    100.00%
system.ruby.L1Cache_Controller.M_IL0.L0_DataAck::total         2967                      
system.ruby.L1Cache_Controller.M_IL0.L0_Invalidate_Own |         822     16.65%     16.65% |        4115     83.35%    100.00%
system.ruby.L1Cache_Controller.M_IL0.L0_Invalidate_Own::total         4937                      
system.ruby.L1Cache_Controller.M_IL0.L0_Invalidate_Else |         706     97.65%     97.65% |          17      2.35%    100.00%
system.ruby.L1Cache_Controller.M_IL0.L0_Invalidate_Else::total          723                      
system.ruby.L1Cache_Controller.M_IL0.L0_Ack |         130      4.83%      4.83% |        2563     95.17%    100.00%
system.ruby.L1Cache_Controller.M_IL0.L0_Ack::total         2693                      
system.ruby.L2Cache_Controller.L1_GETS       12792259      0.00%      0.00%
system.ruby.L2Cache_Controller.L1_GETX        1097193      0.00%      0.00%
system.ruby.L2Cache_Controller.L1_UPGRADE           23      0.00%      0.00%
system.ruby.L2Cache_Controller.L1_PUTX       13878160      0.00%      0.00%
system.ruby.L2Cache_Controller.L2_Replacement      3148121      0.00%      0.00%
system.ruby.L2Cache_Controller.L2_Replacement_clean      3066919      0.00%      0.00%
system.ruby.L2Cache_Controller.Mem_Data       6477184      0.00%      0.00%
system.ruby.L2Cache_Controller.Mem_Ack        6215040      0.00%      0.00%
system.ruby.L2Cache_Controller.WB_Data           4276      0.00%      0.00%
system.ruby.L2Cache_Controller.WB_Data_clean          171      0.00%      0.00%
system.ruby.L2Cache_Controller.Ack                 48      0.00%      0.00%
system.ruby.L2Cache_Controller.Ack_all            921      0.00%      0.00%
system.ruby.L2Cache_Controller.Unblock             77      0.00%      0.00%
system.ruby.L2Cache_Controller.Exclusive_Unblock     13888271      0.00%      0.00%
system.ruby.L2Cache_Controller.NP.L1_GETS      5381093      0.00%      0.00%
system.ruby.L2Cache_Controller.NP.L1_GETX      1096091      0.00%      0.00%
system.ruby.L2Cache_Controller.SS.L1_GETS         1067      0.00%      0.00%
system.ruby.L2Cache_Controller.SS.L1_UPGRADE           23      0.00%      0.00%
system.ruby.L2Cache_Controller.SS.L2_Replacement           46      0.00%      0.00%
system.ruby.L2Cache_Controller.SS.L2_Replacement_clean            2      0.00%      0.00%
system.ruby.L2Cache_Controller.M.L1_GETS      7409974      0.00%      0.00%
system.ruby.L2Cache_Controller.M.L1_GETX         1081      0.00%      0.00%
system.ruby.L2Cache_Controller.M.L2_Replacement      3148060      0.00%      0.00%
system.ruby.L2Cache_Controller.M.L2_Replacement_clean      3061689      0.00%      0.00%
system.ruby.L2Cache_Controller.MT.L1_GETS           77      0.00%      0.00%
system.ruby.L2Cache_Controller.MT.L1_GETX            9      0.00%      0.00%
system.ruby.L2Cache_Controller.MT.L1_PUTX     13878160      0.00%      0.00%
system.ruby.L2Cache_Controller.MT.L2_Replacement           15      0.00%      0.00%
system.ruby.L2Cache_Controller.MT.L2_Replacement_clean         5228      0.00%      0.00%
system.ruby.L2Cache_Controller.M_I.L1_GETS           45      0.00%      0.00%
system.ruby.L2Cache_Controller.M_I.L1_GETX           12      0.00%      0.00%
system.ruby.L2Cache_Controller.M_I.Mem_Ack      6215040      0.00%      0.00%
system.ruby.L2Cache_Controller.MT_I.WB_Data            6      0.00%      0.00%
system.ruby.L2Cache_Controller.MT_I.Ack_all            9      0.00%      0.00%
system.ruby.L2Cache_Controller.MCT_I.WB_Data         4206      0.00%      0.00%
system.ruby.L2Cache_Controller.MCT_I.WB_Data_clean          158      0.00%      0.00%
system.ruby.L2Cache_Controller.MCT_I.Ack_all          864      0.00%      0.00%
system.ruby.L2Cache_Controller.I_I.Ack              2      0.00%      0.00%
system.ruby.L2Cache_Controller.I_I.Ack_all            2      0.00%      0.00%
system.ruby.L2Cache_Controller.S_I.Ack             46      0.00%      0.00%
system.ruby.L2Cache_Controller.S_I.Ack_all           46      0.00%      0.00%
system.ruby.L2Cache_Controller.ISS.Mem_Data      5381093      0.00%      0.00%
system.ruby.L2Cache_Controller.IM.Mem_Data      1096091      0.00%      0.00%
system.ruby.L2Cache_Controller.SS_MB.Exclusive_Unblock           23      0.00%      0.00%
system.ruby.L2Cache_Controller.MT_MB.L1_GETS            3      0.00%      0.00%
system.ruby.L2Cache_Controller.MT_MB.Exclusive_Unblock     13888248      0.00%      0.00%
system.ruby.L2Cache_Controller.MT_IIB.WB_Data           64      0.00%      0.00%
system.ruby.L2Cache_Controller.MT_IIB.WB_Data_clean           13      0.00%      0.00%
system.ruby.L2Cache_Controller.MT_SB.Unblock           77      0.00%      0.00%

---------- End Simulation Statistics   ----------
