
---------- Begin Simulation Statistics ----------
sim_seconds                                  1.568360                       # Number of seconds simulated
sim_ticks                                1568360247500                       # Number of ticks simulated
final_tick                               1568360247500                       # Number of ticks from beginning of simulation (restored from checkpoints and never reset)
sim_freq                                 1000000000000                       # Frequency of simulated ticks
host_inst_rate                                 145006                       # Simulator instruction rate (inst/s)
host_op_rate                                   398978                       # Simulator op (including micro ops) rate (op/s)
host_tick_rate                              239445570                       # Simulator tick rate (ticks/s)
host_mem_usage                                1168948                       # Number of bytes of host memory used
host_seconds                                  6549.97                       # Real time elapsed on the host
sim_insts                                   949785186                       # Number of instructions simulated
sim_ops                                    2613290697                       # Number of ops (including micro ops) simulated
system.voltage_domain.voltage                       1                       # Voltage in Volts
system.clk_domain.clock                          1000                       # Clock period in ticks
system.mem_ctrls.bytes_read::ruby.dir_cntrl0    111420096                       # Number of bytes read from this memory
system.mem_ctrls.bytes_read::total          111420096                       # Number of bytes read from this memory
system.mem_ctrls.bytes_written::ruby.dir_cntrl0     74318336                       # Number of bytes written to this memory
system.mem_ctrls.bytes_written::total        74318336                       # Number of bytes written to this memory
system.mem_ctrls.num_reads::ruby.dir_cntrl0      1740939                       # Number of read requests responded to by this memory
system.mem_ctrls.num_reads::total             1740939                       # Number of read requests responded to by this memory
system.mem_ctrls.num_writes::ruby.dir_cntrl0      1161224                       # Number of write requests responded to by this memory
system.mem_ctrls.num_writes::total            1161224                       # Number of write requests responded to by this memory
system.mem_ctrls.bw_read::ruby.dir_cntrl0     71042413                       # Total read bandwidth from this memory (bytes/s)
system.mem_ctrls.bw_read::total              71042413                       # Total read bandwidth from this memory (bytes/s)
system.mem_ctrls.bw_write::ruby.dir_cntrl0     47386011                       # Write bandwidth from this memory (bytes/s)
system.mem_ctrls.bw_write::total             47386011                       # Write bandwidth from this memory (bytes/s)
system.mem_ctrls.bw_total::ruby.dir_cntrl0    118428424                       # Total bandwidth to/from this memory (bytes/s)
system.mem_ctrls.bw_total::total            118428424                       # Total bandwidth to/from this memory (bytes/s)
system.mem_ctrls.readReqs                     1740939                       # Number of read requests accepted
system.mem_ctrls.writeReqs                    1161224                       # Number of write requests accepted
system.mem_ctrls.readBursts                   1740939                       # Number of DRAM read bursts, including those serviced by the write queue
system.mem_ctrls.writeBursts                  1161224                       # Number of DRAM write bursts, including those merged in the write queue
system.mem_ctrls.bytesReadDRAM              111409216                       # Total number of bytes read from DRAM
system.mem_ctrls.bytesReadWrQ                   10880                       # Total number of bytes read from write queue
system.mem_ctrls.bytesWritten                74316864                       # Total number of bytes written to DRAM
system.mem_ctrls.bytesReadSys               111420096                       # Total read bytes from the system interface side
system.mem_ctrls.bytesWrittenSys             74318336                       # Total written bytes from the system interface side
system.mem_ctrls.servicedByWrQ                    170                       # Number of DRAM read bursts serviced by the write queue
system.mem_ctrls.mergedWrBursts                     0                       # Number of DRAM write bursts merged with an existing one
system.mem_ctrls.neitherReadNorWriteReqs            0                       # Number of requests that are neither read nor write
system.mem_ctrls.perBankRdBursts::0            109946                       # Per bank write bursts
system.mem_ctrls.perBankRdBursts::1            108426                       # Per bank write bursts
system.mem_ctrls.perBankRdBursts::2            107731                       # Per bank write bursts
system.mem_ctrls.perBankRdBursts::3            106903                       # Per bank write bursts
system.mem_ctrls.perBankRdBursts::4            107051                       # Per bank write bursts
system.mem_ctrls.perBankRdBursts::5            107133                       # Per bank write bursts
system.mem_ctrls.perBankRdBursts::6            108299                       # Per bank write bursts
system.mem_ctrls.perBankRdBursts::7            107872                       # Per bank write bursts
system.mem_ctrls.perBankRdBursts::8            107537                       # Per bank write bursts
system.mem_ctrls.perBankRdBursts::9            108469                       # Per bank write bursts
system.mem_ctrls.perBankRdBursts::10           109510                       # Per bank write bursts
system.mem_ctrls.perBankRdBursts::11           109514                       # Per bank write bursts
system.mem_ctrls.perBankRdBursts::12           109597                       # Per bank write bursts
system.mem_ctrls.perBankRdBursts::13           111132                       # Per bank write bursts
system.mem_ctrls.perBankRdBursts::14           110977                       # Per bank write bursts
system.mem_ctrls.perBankRdBursts::15           110672                       # Per bank write bursts
system.mem_ctrls.perBankWrBursts::0             73268                       # Per bank write bursts
system.mem_ctrls.perBankWrBursts::1             72414                       # Per bank write bursts
system.mem_ctrls.perBankWrBursts::2             71549                       # Per bank write bursts
system.mem_ctrls.perBankWrBursts::3             70691                       # Per bank write bursts
system.mem_ctrls.perBankWrBursts::4             70360                       # Per bank write bursts
system.mem_ctrls.perBankWrBursts::5             71014                       # Per bank write bursts
system.mem_ctrls.perBankWrBursts::6             72352                       # Per bank write bursts
system.mem_ctrls.perBankWrBursts::7             72008                       # Per bank write bursts
system.mem_ctrls.perBankWrBursts::8             71148                       # Per bank write bursts
system.mem_ctrls.perBankWrBursts::9             73074                       # Per bank write bursts
system.mem_ctrls.perBankWrBursts::10            74439                       # Per bank write bursts
system.mem_ctrls.perBankWrBursts::11            74036                       # Per bank write bursts
system.mem_ctrls.perBankWrBursts::12            73394                       # Per bank write bursts
system.mem_ctrls.perBankWrBursts::13            74719                       # Per bank write bursts
system.mem_ctrls.perBankWrBursts::14            73723                       # Per bank write bursts
system.mem_ctrls.perBankWrBursts::15            73012                       # Per bank write bursts
system.mem_ctrls.numRdRetry                         0                       # Number of times read queue was full causing retry
system.mem_ctrls.numWrRetry                         0                       # Number of times write queue was full causing retry
system.mem_ctrls.totGap                  1568360153000                       # Total gap between requests
system.mem_ctrls.readPktSize::0                     0                       # Read request sizes (log2)
system.mem_ctrls.readPktSize::1                     0                       # Read request sizes (log2)
system.mem_ctrls.readPktSize::2                     0                       # Read request sizes (log2)
system.mem_ctrls.readPktSize::3                     0                       # Read request sizes (log2)
system.mem_ctrls.readPktSize::4                     0                       # Read request sizes (log2)
system.mem_ctrls.readPktSize::5                     0                       # Read request sizes (log2)
system.mem_ctrls.readPktSize::6               1740939                       # Read request sizes (log2)
system.mem_ctrls.writePktSize::0                    0                       # Write request sizes (log2)
system.mem_ctrls.writePktSize::1                    0                       # Write request sizes (log2)
system.mem_ctrls.writePktSize::2                    0                       # Write request sizes (log2)
system.mem_ctrls.writePktSize::3                    0                       # Write request sizes (log2)
system.mem_ctrls.writePktSize::4                    0                       # Write request sizes (log2)
system.mem_ctrls.writePktSize::5                    0                       # Write request sizes (log2)
system.mem_ctrls.writePktSize::6              1161224                       # Write request sizes (log2)
system.mem_ctrls.rdQLenPdf::0                 1266629                       # What read queue length does an incoming req see
system.mem_ctrls.rdQLenPdf::1                  316522                       # What read queue length does an incoming req see
system.mem_ctrls.rdQLenPdf::2                  124958                       # What read queue length does an incoming req see
system.mem_ctrls.rdQLenPdf::3                   32660                       # What read queue length does an incoming req see
system.mem_ctrls.rdQLenPdf::4                       0                       # What read queue length does an incoming req see
system.mem_ctrls.rdQLenPdf::5                       0                       # What read queue length does an incoming req see
system.mem_ctrls.rdQLenPdf::6                       0                       # What read queue length does an incoming req see
system.mem_ctrls.rdQLenPdf::7                       0                       # What read queue length does an incoming req see
system.mem_ctrls.rdQLenPdf::8                       0                       # What read queue length does an incoming req see
system.mem_ctrls.rdQLenPdf::9                       0                       # What read queue length does an incoming req see
system.mem_ctrls.rdQLenPdf::10                      0                       # What read queue length does an incoming req see
system.mem_ctrls.rdQLenPdf::11                      0                       # What read queue length does an incoming req see
system.mem_ctrls.rdQLenPdf::12                      0                       # What read queue length does an incoming req see
system.mem_ctrls.rdQLenPdf::13                      0                       # What read queue length does an incoming req see
system.mem_ctrls.rdQLenPdf::14                      0                       # What read queue length does an incoming req see
system.mem_ctrls.rdQLenPdf::15                      0                       # What read queue length does an incoming req see
system.mem_ctrls.rdQLenPdf::16                      0                       # What read queue length does an incoming req see
system.mem_ctrls.rdQLenPdf::17                      0                       # What read queue length does an incoming req see
system.mem_ctrls.rdQLenPdf::18                      0                       # What read queue length does an incoming req see
system.mem_ctrls.rdQLenPdf::19                      0                       # What read queue length does an incoming req see
system.mem_ctrls.rdQLenPdf::20                      0                       # What read queue length does an incoming req see
system.mem_ctrls.rdQLenPdf::21                      0                       # What read queue length does an incoming req see
system.mem_ctrls.rdQLenPdf::22                      0                       # What read queue length does an incoming req see
system.mem_ctrls.rdQLenPdf::23                      0                       # What read queue length does an incoming req see
system.mem_ctrls.rdQLenPdf::24                      0                       # What read queue length does an incoming req see
system.mem_ctrls.rdQLenPdf::25                      0                       # What read queue length does an incoming req see
system.mem_ctrls.rdQLenPdf::26                      0                       # What read queue length does an incoming req see
system.mem_ctrls.rdQLenPdf::27                      0                       # What read queue length does an incoming req see
system.mem_ctrls.rdQLenPdf::28                      0                       # What read queue length does an incoming req see
system.mem_ctrls.rdQLenPdf::29                      0                       # What read queue length does an incoming req see
system.mem_ctrls.rdQLenPdf::30                      0                       # What read queue length does an incoming req see
system.mem_ctrls.rdQLenPdf::31                      0                       # What read queue length does an incoming req see
system.mem_ctrls.wrQLenPdf::0                       1                       # What write queue length does an incoming req see
system.mem_ctrls.wrQLenPdf::1                       1                       # What write queue length does an incoming req see
system.mem_ctrls.wrQLenPdf::2                       1                       # What write queue length does an incoming req see
system.mem_ctrls.wrQLenPdf::3                       1                       # What write queue length does an incoming req see
system.mem_ctrls.wrQLenPdf::4                       1                       # What write queue length does an incoming req see
system.mem_ctrls.wrQLenPdf::5                       1                       # What write queue length does an incoming req see
system.mem_ctrls.wrQLenPdf::6                       1                       # What write queue length does an incoming req see
system.mem_ctrls.wrQLenPdf::7                       1                       # What write queue length does an incoming req see
system.mem_ctrls.wrQLenPdf::8                       1                       # What write queue length does an incoming req see
system.mem_ctrls.wrQLenPdf::9                       1                       # What write queue length does an incoming req see
system.mem_ctrls.wrQLenPdf::10                      1                       # What write queue length does an incoming req see
system.mem_ctrls.wrQLenPdf::11                      1                       # What write queue length does an incoming req see
system.mem_ctrls.wrQLenPdf::12                      1                       # What write queue length does an incoming req see
system.mem_ctrls.wrQLenPdf::13                      1                       # What write queue length does an incoming req see
system.mem_ctrls.wrQLenPdf::14                      1                       # What write queue length does an incoming req see
system.mem_ctrls.wrQLenPdf::15                   2161                       # What write queue length does an incoming req see
system.mem_ctrls.wrQLenPdf::16                   2448                       # What write queue length does an incoming req see
system.mem_ctrls.wrQLenPdf::17                  41570                       # What write queue length does an incoming req see
system.mem_ctrls.wrQLenPdf::18                  59124                       # What write queue length does an incoming req see
system.mem_ctrls.wrQLenPdf::19                  69421                       # What write queue length does an incoming req see
system.mem_ctrls.wrQLenPdf::20                  74806                       # What write queue length does an incoming req see
system.mem_ctrls.wrQLenPdf::21                  75005                       # What write queue length does an incoming req see
system.mem_ctrls.wrQLenPdf::22                  75705                       # What write queue length does an incoming req see
system.mem_ctrls.wrQLenPdf::23                  76560                       # What write queue length does an incoming req see
system.mem_ctrls.wrQLenPdf::24                  75891                       # What write queue length does an incoming req see
system.mem_ctrls.wrQLenPdf::25                  75147                       # What write queue length does an incoming req see
system.mem_ctrls.wrQLenPdf::26                  74778                       # What write queue length does an incoming req see
system.mem_ctrls.wrQLenPdf::27                  75015                       # What write queue length does an incoming req see
system.mem_ctrls.wrQLenPdf::28                  76200                       # What write queue length does an incoming req see
system.mem_ctrls.wrQLenPdf::29                  75062                       # What write queue length does an incoming req see
system.mem_ctrls.wrQLenPdf::30                  74686                       # What write queue length does an incoming req see
system.mem_ctrls.wrQLenPdf::31                  78979                       # What write queue length does an incoming req see
system.mem_ctrls.wrQLenPdf::32                  77141                       # What write queue length does an incoming req see
system.mem_ctrls.wrQLenPdf::33                   1154                       # What write queue length does an incoming req see
system.mem_ctrls.wrQLenPdf::34                    269                       # What write queue length does an incoming req see
system.mem_ctrls.wrQLenPdf::35                     76                       # What write queue length does an incoming req see
system.mem_ctrls.wrQLenPdf::36                      6                       # What write queue length does an incoming req see
system.mem_ctrls.wrQLenPdf::37                      1                       # What write queue length does an incoming req see
system.mem_ctrls.wrQLenPdf::38                      1                       # What write queue length does an incoming req see
system.mem_ctrls.wrQLenPdf::39                      1                       # What write queue length does an incoming req see
system.mem_ctrls.wrQLenPdf::40                      1                       # What write queue length does an incoming req see
system.mem_ctrls.wrQLenPdf::41                      1                       # What write queue length does an incoming req see
system.mem_ctrls.wrQLenPdf::42                      0                       # What write queue length does an incoming req see
system.mem_ctrls.wrQLenPdf::43                      0                       # What write queue length does an incoming req see
system.mem_ctrls.wrQLenPdf::44                      0                       # What write queue length does an incoming req see
system.mem_ctrls.wrQLenPdf::45                      0                       # What write queue length does an incoming req see
system.mem_ctrls.wrQLenPdf::46                      0                       # What write queue length does an incoming req see
system.mem_ctrls.wrQLenPdf::47                      0                       # What write queue length does an incoming req see
system.mem_ctrls.wrQLenPdf::48                      0                       # What write queue length does an incoming req see
system.mem_ctrls.wrQLenPdf::49                      0                       # What write queue length does an incoming req see
system.mem_ctrls.wrQLenPdf::50                      0                       # What write queue length does an incoming req see
system.mem_ctrls.wrQLenPdf::51                      0                       # What write queue length does an incoming req see
system.mem_ctrls.wrQLenPdf::52                      0                       # What write queue length does an incoming req see
system.mem_ctrls.wrQLenPdf::53                      0                       # What write queue length does an incoming req see
system.mem_ctrls.wrQLenPdf::54                      0                       # What write queue length does an incoming req see
system.mem_ctrls.wrQLenPdf::55                      0                       # What write queue length does an incoming req see
system.mem_ctrls.wrQLenPdf::56                      0                       # What write queue length does an incoming req see
system.mem_ctrls.wrQLenPdf::57                      0                       # What write queue length does an incoming req see
system.mem_ctrls.wrQLenPdf::58                      0                       # What write queue length does an incoming req see
system.mem_ctrls.wrQLenPdf::59                      0                       # What write queue length does an incoming req see
system.mem_ctrls.wrQLenPdf::60                      0                       # What write queue length does an incoming req see
system.mem_ctrls.wrQLenPdf::61                      0                       # What write queue length does an incoming req see
system.mem_ctrls.wrQLenPdf::62                      0                       # What write queue length does an incoming req see
system.mem_ctrls.wrQLenPdf::63                      0                       # What write queue length does an incoming req see
system.mem_ctrls.bytesPerActivate::samples       612226                       # Bytes accessed per row activation
system.mem_ctrls.bytesPerActivate::mean    303.357571                       # Bytes accessed per row activation
system.mem_ctrls.bytesPerActivate::gmean   182.673339                       # Bytes accessed per row activation
system.mem_ctrls.bytesPerActivate::stdev   302.431278                       # Bytes accessed per row activation
system.mem_ctrls.bytesPerActivate::0-127       261339     42.69%     42.69% # Bytes accessed per row activation
system.mem_ctrls.bytesPerActivate::128-255        52614      8.59%     51.28% # Bytes accessed per row activation
system.mem_ctrls.bytesPerActivate::256-383       117449     19.18%     70.46% # Bytes accessed per row activation
system.mem_ctrls.bytesPerActivate::384-511        38328      6.26%     76.72% # Bytes accessed per row activation
system.mem_ctrls.bytesPerActivate::512-639        38043      6.21%     82.94% # Bytes accessed per row activation
system.mem_ctrls.bytesPerActivate::640-767        26477      4.32%     87.26% # Bytes accessed per row activation
system.mem_ctrls.bytesPerActivate::768-895        19541      3.19%     90.46% # Bytes accessed per row activation
system.mem_ctrls.bytesPerActivate::896-1023        12874      2.10%     92.56% # Bytes accessed per row activation
system.mem_ctrls.bytesPerActivate::1024-1151        45561      7.44%    100.00% # Bytes accessed per row activation
system.mem_ctrls.bytesPerActivate::total       612226                       # Bytes accessed per row activation
system.mem_ctrls.rdPerTurnAround::samples        72226                       # Reads before turning the bus around for writes
system.mem_ctrls.rdPerTurnAround::mean      24.101570                       # Reads before turning the bus around for writes
system.mem_ctrls.rdPerTurnAround::gmean     18.468281                       # Reads before turning the bus around for writes
system.mem_ctrls.rdPerTurnAround::stdev   1145.506322                       # Reads before turning the bus around for writes
system.mem_ctrls.rdPerTurnAround::0-16383        72225    100.00%    100.00% # Reads before turning the bus around for writes
system.mem_ctrls.rdPerTurnAround::294912-311295            1      0.00%    100.00% # Reads before turning the bus around for writes
system.mem_ctrls.rdPerTurnAround::total         72226                       # Reads before turning the bus around for writes
system.mem_ctrls.wrPerTurnAround::samples        72226                       # Writes before turning the bus around for reads
system.mem_ctrls.wrPerTurnAround::mean      16.077327                       # Writes before turning the bus around for reads
system.mem_ctrls.wrPerTurnAround::gmean     16.072230                       # Writes before turning the bus around for reads
system.mem_ctrls.wrPerTurnAround::stdev      0.425089                       # Writes before turning the bus around for reads
system.mem_ctrls.wrPerTurnAround::16            69694     96.49%     96.49% # Writes before turning the bus around for reads
system.mem_ctrls.wrPerTurnAround::17              141      0.20%     96.69% # Writes before turning the bus around for reads
system.mem_ctrls.wrPerTurnAround::18             1918      2.66%     99.35% # Writes before turning the bus around for reads
system.mem_ctrls.wrPerTurnAround::19              327      0.45%     99.80% # Writes before turning the bus around for reads
system.mem_ctrls.wrPerTurnAround::20              105      0.15%     99.94% # Writes before turning the bus around for reads
system.mem_ctrls.wrPerTurnAround::21               39      0.05%    100.00% # Writes before turning the bus around for reads
system.mem_ctrls.wrPerTurnAround::22                2      0.00%    100.00% # Writes before turning the bus around for reads
system.mem_ctrls.wrPerTurnAround::total         72226                       # Writes before turning the bus around for reads
system.mem_ctrls.totQLat                  39912279491                       # Total ticks spent queuing
system.mem_ctrls.totMemAccLat             72551698241                       # Total ticks spent from burst creation until serviced by the DRAM
system.mem_ctrls.totBusLat                 8703845000                       # Total ticks spent in databus transfers
system.mem_ctrls.avgQLat                     22927.96                       # Average queueing delay per DRAM burst
system.mem_ctrls.avgBusLat                    5000.00                       # Average bus latency per DRAM burst
system.mem_ctrls.avgMemAccLat                41677.96                       # Average memory access latency per DRAM burst
system.mem_ctrls.avgRdBW                        71.04                       # Average DRAM read bandwidth in MiByte/s
system.mem_ctrls.avgWrBW                        47.39                       # Average achieved write bandwidth in MiByte/s
system.mem_ctrls.avgRdBWSys                     71.04                       # Average system read bandwidth in MiByte/s
system.mem_ctrls.avgWrBWSys                     47.39                       # Average system write bandwidth in MiByte/s
system.mem_ctrls.peakBW                      12800.00                       # Theoretical peak bandwidth in MiByte/s
system.mem_ctrls.busUtil                         0.93                       # Data bus utilization in percentage
system.mem_ctrls.busUtilRead                     0.55                       # Data bus utilization in percentage for reads
system.mem_ctrls.busUtilWrite                    0.37                       # Data bus utilization in percentage for writes
system.mem_ctrls.avgRdQLen                       1.03                       # Average read queue length when enqueuing
system.mem_ctrls.avgWrQLen                      18.56                       # Average write queue length when enqueuing
system.mem_ctrls.readRowHits                  1264089                       # Number of row buffer hits during reads
system.mem_ctrls.writeRowHits                 1025641                       # Number of row buffer hits during writes
system.mem_ctrls.readRowHitRate                 72.62                       # Row buffer hit rate for reads
system.mem_ctrls.writeRowHitRate                88.32                       # Row buffer hit rate for writes
system.mem_ctrls.avgGap                     540410.77                       # Average gap between requests
system.mem_ctrls.pageHitRate                    78.90                       # Row buffer hit rate, read and write combined
system.mem_ctrls_0.actEnergy               2300810400                       # Energy for activate commands per rank (pJ)
system.mem_ctrls_0.preEnergy               1255402500                       # Energy for precharge commands per rank (pJ)
system.mem_ctrls_0.readEnergy              6733958400                       # Energy for read commands per rank (pJ)
system.mem_ctrls_0.writeEnergy             3717174240                       # Energy for write commands per rank (pJ)
system.mem_ctrls_0.refreshEnergy         102437206560                       # Energy for refresh commands per rank (pJ)
system.mem_ctrls_0.actBackEnergy         326261991915                       # Energy for active background per rank (pJ)
system.mem_ctrls_0.preBackEnergy         654817344000                       # Energy for precharge background per rank (pJ)
system.mem_ctrls_0.totalEnergy           1097523888015                       # Total energy per rank (pJ)
system.mem_ctrls_0.averagePower            699.793713                       # Core power per rank (mW)
system.mem_ctrls_0.memoryStateTime::IDLE 1086878113005                       # Time in different power states
system.mem_ctrls_0.memoryStateTime::REF   52370760000                       # Time in different power states
system.mem_ctrls_0.memoryStateTime::PRE_PDN            0                       # Time in different power states
system.mem_ctrls_0.memoryStateTime::ACT  429104596245                       # Time in different power states
system.mem_ctrls_0.memoryStateTime::ACT_PDN            0                       # Time in different power states
system.mem_ctrls_1.actEnergy               2327421600                       # Energy for activate commands per rank (pJ)
system.mem_ctrls_1.preEnergy               1269922500                       # Energy for precharge commands per rank (pJ)
system.mem_ctrls_1.readEnergy              6843454800                       # Energy for read commands per rank (pJ)
system.mem_ctrls_1.writeEnergy             3807097200                       # Energy for write commands per rank (pJ)
system.mem_ctrls_1.refreshEnergy         102437206560                       # Energy for refresh commands per rank (pJ)
system.mem_ctrls_1.actBackEnergy         325554916320                       # Energy for active background per rank (pJ)
system.mem_ctrls_1.preBackEnergy         655437583500                       # Energy for precharge background per rank (pJ)
system.mem_ctrls_1.totalEnergy           1097677602480                       # Total energy per rank (pJ)
system.mem_ctrls_1.averagePower            699.891724                       # Core power per rank (mW)
system.mem_ctrls_1.memoryStateTime::IDLE 1087906087254                       # Time in different power states
system.mem_ctrls_1.memoryStateTime::REF   52370760000                       # Time in different power states
system.mem_ctrls_1.memoryStateTime::PRE_PDN            0                       # Time in different power states
system.mem_ctrls_1.memoryStateTime::ACT  428076832246                       # Time in different power states
system.mem_ctrls_1.memoryStateTime::ACT_PDN            0                       # Time in different power states
system.cpu_voltage_domain.voltage                   1                       # Voltage in Volts
system.cpu_clk_domain.clock                       500                       # Clock period in ticks
system.cpu0.apic_clk_domain.clock                8000                       # Clock period in ticks
system.cpu0.workload.num_syscalls                 196                       # Number of system calls
system.cpu0.numCycles                      3136720495                       # number of cpu cycles simulated
system.cpu0.numWorkItemsStarted                     0                       # number of work items this cpu started
system.cpu0.numWorkItemsCompleted                   0                       # number of work items this cpu completed
system.cpu0.committedInsts                  865758294                       # Number of instructions committed
system.cpu0.committedOps                   2445859613                       # Number of ops (including micro ops) committed
system.cpu0.num_int_alu_accesses           2308920011                       # Number of integer alu accesses
system.cpu0.num_fp_alu_accesses              58138219                       # Number of float alu accesses
system.cpu0.num_func_calls                   81530228                       # number of times a function call or return occured
system.cpu0.num_conditional_control_insts    190496525                       # number of instructions that are conditional controls
system.cpu0.num_int_insts                  2308920011                       # number of integer instructions
system.cpu0.num_fp_insts                     58138219                       # number of float instructions
system.cpu0.num_int_register_reads         4868879952                       # number of times the integer registers were read
system.cpu0.num_int_register_writes        2293316346                       # number of times the integer registers were written
system.cpu0.num_fp_register_reads            93430457                       # number of times the floating registers were read
system.cpu0.num_fp_register_writes           45693074                       # number of times the floating registers were written
system.cpu0.num_cc_register_reads          1954686921                       # number of times the CC registers were read
system.cpu0.num_cc_register_writes          732056949                       # number of times the CC registers were written
system.cpu0.num_mem_refs                    379888637                       # number of memory refs
system.cpu0.num_load_insts                  231620245                       # Number of load instructions
system.cpu0.num_store_insts                 148268392                       # Number of store instructions
system.cpu0.num_idle_cycles                  0.002000                       # Number of idle cycles
system.cpu0.num_busy_cycles              3136720494.998000                       # Number of busy cycles
system.cpu0.not_idle_fraction                1.000000                       # Percentage of non-idle cycles
system.cpu0.idle_fraction                    0.000000                       # Percentage of idle cycles
system.cpu0.Branches                        311113004                       # Number of branches fetched
system.cpu0.op_class::No_OpClass             47297341      1.93%      1.93% # Class of executed instruction
system.cpu0.op_class::IntAlu               1769357261     72.34%     74.27% # Class of executed instruction
system.cpu0.op_class::IntMult                     390      0.00%     74.27% # Class of executed instruction
system.cpu0.op_class::IntDiv                203623736      8.33%     82.60% # Class of executed instruction
system.cpu0.op_class::FloatAdd               45692248      1.87%     84.47% # Class of executed instruction
system.cpu0.op_class::FloatCmp                      0      0.00%     84.47% # Class of executed instruction
system.cpu0.op_class::FloatCvt                      0      0.00%     84.47% # Class of executed instruction
system.cpu0.op_class::FloatMult                     0      0.00%     84.47% # Class of executed instruction
system.cpu0.op_class::FloatDiv                      0      0.00%     84.47% # Class of executed instruction
system.cpu0.op_class::FloatSqrt                     0      0.00%     84.47% # Class of executed instruction
system.cpu0.op_class::SimdAdd                       0      0.00%     84.47% # Class of executed instruction
system.cpu0.op_class::SimdAddAcc                    0      0.00%     84.47% # Class of executed instruction
system.cpu0.op_class::SimdAlu                       0      0.00%     84.47% # Class of executed instruction
system.cpu0.op_class::SimdCmp                       0      0.00%     84.47% # Class of executed instruction
system.cpu0.op_class::SimdCvt                       0      0.00%     84.47% # Class of executed instruction
system.cpu0.op_class::SimdMisc                      0      0.00%     84.47% # Class of executed instruction
system.cpu0.op_class::SimdMult                      0      0.00%     84.47% # Class of executed instruction
system.cpu0.op_class::SimdMultAcc                   0      0.00%     84.47% # Class of executed instruction
system.cpu0.op_class::SimdShift                     0      0.00%     84.47% # Class of executed instruction
system.cpu0.op_class::SimdShiftAcc                  0      0.00%     84.47% # Class of executed instruction
system.cpu0.op_class::SimdSqrt                      0      0.00%     84.47% # Class of executed instruction
system.cpu0.op_class::SimdFloatAdd                  0      0.00%     84.47% # Class of executed instruction
system.cpu0.op_class::SimdFloatAlu                  0      0.00%     84.47% # Class of executed instruction
system.cpu0.op_class::SimdFloatCmp                  0      0.00%     84.47% # Class of executed instruction
system.cpu0.op_class::SimdFloatCvt                  0      0.00%     84.47% # Class of executed instruction
system.cpu0.op_class::SimdFloatDiv                  0      0.00%     84.47% # Class of executed instruction
system.cpu0.op_class::SimdFloatMisc                 0      0.00%     84.47% # Class of executed instruction
system.cpu0.op_class::SimdFloatMult                 0      0.00%     84.47% # Class of executed instruction
system.cpu0.op_class::SimdFloatMultAcc              0      0.00%     84.47% # Class of executed instruction
system.cpu0.op_class::SimdFloatSqrt                 0      0.00%     84.47% # Class of executed instruction
system.cpu0.op_class::MemRead               231620245      9.47%     93.94% # Class of executed instruction
system.cpu0.op_class::MemWrite              148268392      6.06%    100.00% # Class of executed instruction
system.cpu0.op_class::IprAccess                     0      0.00%    100.00% # Class of executed instruction
system.cpu0.op_class::InstPrefetch                  0      0.00%    100.00% # Class of executed instruction
system.cpu0.op_class::total                2445859613                       # Class of executed instruction
system.cpu1.apic_clk_domain.clock                8000                       # Clock period in ticks
system.cpu1.numCycles                      3136402900                       # number of cpu cycles simulated
system.cpu1.numWorkItemsStarted                     0                       # number of work items this cpu started
system.cpu1.numWorkItemsCompleted                   0                       # number of work items this cpu completed
system.cpu1.committedInsts                   21006723                       # Number of instructions committed
system.cpu1.committedOps                     41857771                       # Number of ops (including micro ops) committed
system.cpu1.num_int_alu_accesses             32737311                       # Number of integer alu accesses
system.cpu1.num_fp_alu_accesses              22882035                       # Number of float alu accesses
system.cpu1.num_func_calls                      40531                       # number of times a function call or return occured
system.cpu1.num_conditional_control_insts      2310570                       # number of instructions that are conditional controls
system.cpu1.num_int_insts                    32737311                       # number of integer instructions
system.cpu1.num_fp_insts                     22882035                       # number of float instructions
system.cpu1.num_int_register_reads           63226277                       # number of times the integer registers were read
system.cpu1.num_int_register_writes          16641619                       # number of times the integer registers were written
system.cpu1.num_fp_register_reads            31860914                       # number of times the floating registers were read
system.cpu1.num_fp_register_writes           18261133                       # number of times the floating registers were written
system.cpu1.num_cc_register_reads            13883680                       # number of times the CC registers were read
system.cpu1.num_cc_register_writes           13877323                       # number of times the CC registers were written
system.cpu1.num_mem_refs                     13842900                       # number of memory refs
system.cpu1.num_load_insts                    9201655                       # Number of load instructions
system.cpu1.num_store_insts                   4641245                       # Number of store instructions
system.cpu1.num_idle_cycles              2998454539.776059                       # Number of idle cycles
system.cpu1.num_busy_cycles              137948360.223941                       # Number of busy cycles
system.cpu1.not_idle_fraction                0.043983                       # Percentage of non-idle cycles
system.cpu1.idle_fraction                    0.956017                       # Percentage of idle cycles
system.cpu1.Branches                          2371387                       # Number of branches fetched
system.cpu1.op_class::No_OpClass                    2      0.00%      0.00% # Class of executed instruction
system.cpu1.op_class::IntAlu                 18836779     45.00%     45.00% # Class of executed instruction
system.cpu1.op_class::IntMult                   57612      0.14%     45.14% # Class of executed instruction
system.cpu1.op_class::IntDiv                       14      0.00%     45.14% # Class of executed instruction
system.cpu1.op_class::FloatAdd                9120464     21.79%     66.93% # Class of executed instruction
system.cpu1.op_class::FloatCmp                      0      0.00%     66.93% # Class of executed instruction
system.cpu1.op_class::FloatCvt                      0      0.00%     66.93% # Class of executed instruction
system.cpu1.op_class::FloatMult                     0      0.00%     66.93% # Class of executed instruction
system.cpu1.op_class::FloatDiv                      0      0.00%     66.93% # Class of executed instruction
system.cpu1.op_class::FloatSqrt                     0      0.00%     66.93% # Class of executed instruction
system.cpu1.op_class::SimdAdd                       0      0.00%     66.93% # Class of executed instruction
system.cpu1.op_class::SimdAddAcc                    0      0.00%     66.93% # Class of executed instruction
system.cpu1.op_class::SimdAlu                       0      0.00%     66.93% # Class of executed instruction
system.cpu1.op_class::SimdCmp                       0      0.00%     66.93% # Class of executed instruction
system.cpu1.op_class::SimdCvt                       0      0.00%     66.93% # Class of executed instruction
system.cpu1.op_class::SimdMisc                      0      0.00%     66.93% # Class of executed instruction
system.cpu1.op_class::SimdMult                      0      0.00%     66.93% # Class of executed instruction
system.cpu1.op_class::SimdMultAcc                   0      0.00%     66.93% # Class of executed instruction
system.cpu1.op_class::SimdShift                     0      0.00%     66.93% # Class of executed instruction
system.cpu1.op_class::SimdShiftAcc                  0      0.00%     66.93% # Class of executed instruction
system.cpu1.op_class::SimdSqrt                      0      0.00%     66.93% # Class of executed instruction
system.cpu1.op_class::SimdFloatAdd                  0      0.00%     66.93% # Class of executed instruction
system.cpu1.op_class::SimdFloatAlu                  0      0.00%     66.93% # Class of executed instruction
system.cpu1.op_class::SimdFloatCmp                  0      0.00%     66.93% # Class of executed instruction
system.cpu1.op_class::SimdFloatCvt                  0      0.00%     66.93% # Class of executed instruction
system.cpu1.op_class::SimdFloatDiv                  0      0.00%     66.93% # Class of executed instruction
system.cpu1.op_class::SimdFloatMisc                 0      0.00%     66.93% # Class of executed instruction
system.cpu1.op_class::SimdFloatMult                 0      0.00%     66.93% # Class of executed instruction
system.cpu1.op_class::SimdFloatMultAcc              0      0.00%     66.93% # Class of executed instruction
system.cpu1.op_class::SimdFloatSqrt                 0      0.00%     66.93% # Class of executed instruction
system.cpu1.op_class::MemRead                 9201655     21.98%     88.91% # Class of executed instruction
system.cpu1.op_class::MemWrite                4641245     11.09%    100.00% # Class of executed instruction
system.cpu1.op_class::IprAccess                     0      0.00%    100.00% # Class of executed instruction
system.cpu1.op_class::InstPrefetch                  0      0.00%    100.00% # Class of executed instruction
system.cpu1.op_class::total                  41857771                       # Class of executed instruction
system.cpu2.apic_clk_domain.clock                8000                       # Clock period in ticks
system.cpu2.numCycles                      3134216613                       # number of cpu cycles simulated
system.cpu2.numWorkItemsStarted                     0                       # number of work items this cpu started
system.cpu2.numWorkItemsCompleted                   0                       # number of work items this cpu completed
system.cpu2.committedInsts                   21006723                       # Number of instructions committed
system.cpu2.committedOps                     41857771                       # Number of ops (including micro ops) committed
system.cpu2.num_int_alu_accesses             32737311                       # Number of integer alu accesses
system.cpu2.num_fp_alu_accesses              22882035                       # Number of float alu accesses
system.cpu2.num_func_calls                      40531                       # number of times a function call or return occured
system.cpu2.num_conditional_control_insts      2310570                       # number of instructions that are conditional controls
system.cpu2.num_int_insts                    32737311                       # number of integer instructions
system.cpu2.num_fp_insts                     22882035                       # number of float instructions
system.cpu2.num_int_register_reads           63226277                       # number of times the integer registers were read
system.cpu2.num_int_register_writes          16641619                       # number of times the integer registers were written
system.cpu2.num_fp_register_reads            31860914                       # number of times the floating registers were read
system.cpu2.num_fp_register_writes           18261133                       # number of times the floating registers were written
system.cpu2.num_cc_register_reads            13883680                       # number of times the CC registers were read
system.cpu2.num_cc_register_writes           13877323                       # number of times the CC registers were written
system.cpu2.num_mem_refs                     13842900                       # number of memory refs
system.cpu2.num_load_insts                    9201655                       # Number of load instructions
system.cpu2.num_store_insts                   4641245                       # Number of store instructions
system.cpu2.num_idle_cycles              2998549696.410235                       # Number of idle cycles
system.cpu2.num_busy_cycles              135666916.589765                       # Number of busy cycles
system.cpu2.not_idle_fraction                0.043286                       # Percentage of non-idle cycles
system.cpu2.idle_fraction                    0.956714                       # Percentage of idle cycles
system.cpu2.Branches                          2371387                       # Number of branches fetched
system.cpu2.op_class::No_OpClass                    2      0.00%      0.00% # Class of executed instruction
system.cpu2.op_class::IntAlu                 18836779     45.00%     45.00% # Class of executed instruction
system.cpu2.op_class::IntMult                   57612      0.14%     45.14% # Class of executed instruction
system.cpu2.op_class::IntDiv                       14      0.00%     45.14% # Class of executed instruction
system.cpu2.op_class::FloatAdd                9120464     21.79%     66.93% # Class of executed instruction
system.cpu2.op_class::FloatCmp                      0      0.00%     66.93% # Class of executed instruction
system.cpu2.op_class::FloatCvt                      0      0.00%     66.93% # Class of executed instruction
system.cpu2.op_class::FloatMult                     0      0.00%     66.93% # Class of executed instruction
system.cpu2.op_class::FloatDiv                      0      0.00%     66.93% # Class of executed instruction
system.cpu2.op_class::FloatSqrt                     0      0.00%     66.93% # Class of executed instruction
system.cpu2.op_class::SimdAdd                       0      0.00%     66.93% # Class of executed instruction
system.cpu2.op_class::SimdAddAcc                    0      0.00%     66.93% # Class of executed instruction
system.cpu2.op_class::SimdAlu                       0      0.00%     66.93% # Class of executed instruction
system.cpu2.op_class::SimdCmp                       0      0.00%     66.93% # Class of executed instruction
system.cpu2.op_class::SimdCvt                       0      0.00%     66.93% # Class of executed instruction
system.cpu2.op_class::SimdMisc                      0      0.00%     66.93% # Class of executed instruction
system.cpu2.op_class::SimdMult                      0      0.00%     66.93% # Class of executed instruction
system.cpu2.op_class::SimdMultAcc                   0      0.00%     66.93% # Class of executed instruction
system.cpu2.op_class::SimdShift                     0      0.00%     66.93% # Class of executed instruction
system.cpu2.op_class::SimdShiftAcc                  0      0.00%     66.93% # Class of executed instruction
system.cpu2.op_class::SimdSqrt                      0      0.00%     66.93% # Class of executed instruction
system.cpu2.op_class::SimdFloatAdd                  0      0.00%     66.93% # Class of executed instruction
system.cpu2.op_class::SimdFloatAlu                  0      0.00%     66.93% # Class of executed instruction
system.cpu2.op_class::SimdFloatCmp                  0      0.00%     66.93% # Class of executed instruction
system.cpu2.op_class::SimdFloatCvt                  0      0.00%     66.93% # Class of executed instruction
system.cpu2.op_class::SimdFloatDiv                  0      0.00%     66.93% # Class of executed instruction
system.cpu2.op_class::SimdFloatMisc                 0      0.00%     66.93% # Class of executed instruction
system.cpu2.op_class::SimdFloatMult                 0      0.00%     66.93% # Class of executed instruction
system.cpu2.op_class::SimdFloatMultAcc              0      0.00%     66.93% # Class of executed instruction
system.cpu2.op_class::SimdFloatSqrt                 0      0.00%     66.93% # Class of executed instruction
system.cpu2.op_class::MemRead                 9201655     21.98%     88.91% # Class of executed instruction
system.cpu2.op_class::MemWrite                4641245     11.09%    100.00% # Class of executed instruction
system.cpu2.op_class::IprAccess                     0      0.00%    100.00% # Class of executed instruction
system.cpu2.op_class::InstPrefetch                  0      0.00%    100.00% # Class of executed instruction
system.cpu2.op_class::total                  41857771                       # Class of executed instruction
system.cpu3.apic_clk_domain.clock                8000                       # Clock period in ticks
system.cpu3.numCycles                      3135808167                       # number of cpu cycles simulated
system.cpu3.numWorkItemsStarted                     0                       # number of work items this cpu started
system.cpu3.numWorkItemsCompleted                   0                       # number of work items this cpu completed
system.cpu3.committedInsts                   21006723                       # Number of instructions committed
system.cpu3.committedOps                     41857771                       # Number of ops (including micro ops) committed
system.cpu3.num_int_alu_accesses             32737311                       # Number of integer alu accesses
system.cpu3.num_fp_alu_accesses              22882035                       # Number of float alu accesses
system.cpu3.num_func_calls                      40531                       # number of times a function call or return occured
system.cpu3.num_conditional_control_insts      2310570                       # number of instructions that are conditional controls
system.cpu3.num_int_insts                    32737311                       # number of integer instructions
system.cpu3.num_fp_insts                     22882035                       # number of float instructions
system.cpu3.num_int_register_reads           63226277                       # number of times the integer registers were read
system.cpu3.num_int_register_writes          16641619                       # number of times the integer registers were written
system.cpu3.num_fp_register_reads            31860914                       # number of times the floating registers were read
system.cpu3.num_fp_register_writes           18261133                       # number of times the floating registers were written
system.cpu3.num_cc_register_reads            13883680                       # number of times the CC registers were read
system.cpu3.num_cc_register_writes           13877323                       # number of times the CC registers were written
system.cpu3.num_mem_refs                     13842900                       # number of memory refs
system.cpu3.num_load_insts                    9201655                       # Number of load instructions
system.cpu3.num_store_insts                   4641245                       # Number of store instructions
system.cpu3.num_idle_cycles              2998482034.488678                       # Number of idle cycles
system.cpu3.num_busy_cycles              137326132.511322                       # Number of busy cycles
system.cpu3.not_idle_fraction                0.043793                       # Percentage of non-idle cycles
system.cpu3.idle_fraction                    0.956207                       # Percentage of idle cycles
system.cpu3.Branches                          2371387                       # Number of branches fetched
system.cpu3.op_class::No_OpClass                    2      0.00%      0.00% # Class of executed instruction
system.cpu3.op_class::IntAlu                 18836779     45.00%     45.00% # Class of executed instruction
system.cpu3.op_class::IntMult                   57612      0.14%     45.14% # Class of executed instruction
system.cpu3.op_class::IntDiv                       14      0.00%     45.14% # Class of executed instruction
system.cpu3.op_class::FloatAdd                9120464     21.79%     66.93% # Class of executed instruction
system.cpu3.op_class::FloatCmp                      0      0.00%     66.93% # Class of executed instruction
system.cpu3.op_class::FloatCvt                      0      0.00%     66.93% # Class of executed instruction
system.cpu3.op_class::FloatMult                     0      0.00%     66.93% # Class of executed instruction
system.cpu3.op_class::FloatDiv                      0      0.00%     66.93% # Class of executed instruction
system.cpu3.op_class::FloatSqrt                     0      0.00%     66.93% # Class of executed instruction
system.cpu3.op_class::SimdAdd                       0      0.00%     66.93% # Class of executed instruction
system.cpu3.op_class::SimdAddAcc                    0      0.00%     66.93% # Class of executed instruction
system.cpu3.op_class::SimdAlu                       0      0.00%     66.93% # Class of executed instruction
system.cpu3.op_class::SimdCmp                       0      0.00%     66.93% # Class of executed instruction
system.cpu3.op_class::SimdCvt                       0      0.00%     66.93% # Class of executed instruction
system.cpu3.op_class::SimdMisc                      0      0.00%     66.93% # Class of executed instruction
system.cpu3.op_class::SimdMult                      0      0.00%     66.93% # Class of executed instruction
system.cpu3.op_class::SimdMultAcc                   0      0.00%     66.93% # Class of executed instruction
system.cpu3.op_class::SimdShift                     0      0.00%     66.93% # Class of executed instruction
system.cpu3.op_class::SimdShiftAcc                  0      0.00%     66.93% # Class of executed instruction
system.cpu3.op_class::SimdSqrt                      0      0.00%     66.93% # Class of executed instruction
system.cpu3.op_class::SimdFloatAdd                  0      0.00%     66.93% # Class of executed instruction
system.cpu3.op_class::SimdFloatAlu                  0      0.00%     66.93% # Class of executed instruction
system.cpu3.op_class::SimdFloatCmp                  0      0.00%     66.93% # Class of executed instruction
system.cpu3.op_class::SimdFloatCvt                  0      0.00%     66.93% # Class of executed instruction
system.cpu3.op_class::SimdFloatDiv                  0      0.00%     66.93% # Class of executed instruction
system.cpu3.op_class::SimdFloatMisc                 0      0.00%     66.93% # Class of executed instruction
system.cpu3.op_class::SimdFloatMult                 0      0.00%     66.93% # Class of executed instruction
system.cpu3.op_class::SimdFloatMultAcc              0      0.00%     66.93% # Class of executed instruction
system.cpu3.op_class::SimdFloatSqrt                 0      0.00%     66.93% # Class of executed instruction
system.cpu3.op_class::MemRead                 9201655     21.98%     88.91% # Class of executed instruction
system.cpu3.op_class::MemWrite                4641245     11.09%    100.00% # Class of executed instruction
system.cpu3.op_class::IprAccess                     0      0.00%    100.00% # Class of executed instruction
system.cpu3.op_class::InstPrefetch                  0      0.00%    100.00% # Class of executed instruction
system.cpu3.op_class::total                  41857771                       # Class of executed instruction
system.cpu4.apic_clk_domain.clock                8000                       # Clock period in ticks
system.cpu4.numCycles                      3133563810                       # number of cpu cycles simulated
system.cpu4.numWorkItemsStarted                     0                       # number of work items this cpu started
system.cpu4.numWorkItemsCompleted                   0                       # number of work items this cpu completed
system.cpu4.committedInsts                   21006723                       # Number of instructions committed
system.cpu4.committedOps                     41857771                       # Number of ops (including micro ops) committed
system.cpu4.num_int_alu_accesses             32737311                       # Number of integer alu accesses
system.cpu4.num_fp_alu_accesses              22882035                       # Number of float alu accesses
system.cpu4.num_func_calls                      40531                       # number of times a function call or return occured
system.cpu4.num_conditional_control_insts      2310570                       # number of instructions that are conditional controls
system.cpu4.num_int_insts                    32737311                       # number of integer instructions
system.cpu4.num_fp_insts                     22882035                       # number of float instructions
system.cpu4.num_int_register_reads           63226277                       # number of times the integer registers were read
system.cpu4.num_int_register_writes          16641619                       # number of times the integer registers were written
system.cpu4.num_fp_register_reads            31860914                       # number of times the floating registers were read
system.cpu4.num_fp_register_writes           18261133                       # number of times the floating registers were written
system.cpu4.num_cc_register_reads            13883680                       # number of times the CC registers were read
system.cpu4.num_cc_register_writes           13877323                       # number of times the CC registers were written
system.cpu4.num_mem_refs                     13842900                       # number of memory refs
system.cpu4.num_load_insts                    9201655                       # Number of load instructions
system.cpu4.num_store_insts                   4641245                       # Number of store instructions
system.cpu4.num_idle_cycles              2998578655.151060                       # Number of idle cycles
system.cpu4.num_busy_cycles              134985154.848940                       # Number of busy cycles
system.cpu4.not_idle_fraction                0.043077                       # Percentage of non-idle cycles
system.cpu4.idle_fraction                    0.956923                       # Percentage of idle cycles
system.cpu4.Branches                          2371387                       # Number of branches fetched
system.cpu4.op_class::No_OpClass                    2      0.00%      0.00% # Class of executed instruction
system.cpu4.op_class::IntAlu                 18836779     45.00%     45.00% # Class of executed instruction
system.cpu4.op_class::IntMult                   57612      0.14%     45.14% # Class of executed instruction
system.cpu4.op_class::IntDiv                       14      0.00%     45.14% # Class of executed instruction
system.cpu4.op_class::FloatAdd                9120464     21.79%     66.93% # Class of executed instruction
system.cpu4.op_class::FloatCmp                      0      0.00%     66.93% # Class of executed instruction
system.cpu4.op_class::FloatCvt                      0      0.00%     66.93% # Class of executed instruction
system.cpu4.op_class::FloatMult                     0      0.00%     66.93% # Class of executed instruction
system.cpu4.op_class::FloatDiv                      0      0.00%     66.93% # Class of executed instruction
system.cpu4.op_class::FloatSqrt                     0      0.00%     66.93% # Class of executed instruction
system.cpu4.op_class::SimdAdd                       0      0.00%     66.93% # Class of executed instruction
system.cpu4.op_class::SimdAddAcc                    0      0.00%     66.93% # Class of executed instruction
system.cpu4.op_class::SimdAlu                       0      0.00%     66.93% # Class of executed instruction
system.cpu4.op_class::SimdCmp                       0      0.00%     66.93% # Class of executed instruction
system.cpu4.op_class::SimdCvt                       0      0.00%     66.93% # Class of executed instruction
system.cpu4.op_class::SimdMisc                      0      0.00%     66.93% # Class of executed instruction
system.cpu4.op_class::SimdMult                      0      0.00%     66.93% # Class of executed instruction
system.cpu4.op_class::SimdMultAcc                   0      0.00%     66.93% # Class of executed instruction
system.cpu4.op_class::SimdShift                     0      0.00%     66.93% # Class of executed instruction
system.cpu4.op_class::SimdShiftAcc                  0      0.00%     66.93% # Class of executed instruction
system.cpu4.op_class::SimdSqrt                      0      0.00%     66.93% # Class of executed instruction
system.cpu4.op_class::SimdFloatAdd                  0      0.00%     66.93% # Class of executed instruction
system.cpu4.op_class::SimdFloatAlu                  0      0.00%     66.93% # Class of executed instruction
system.cpu4.op_class::SimdFloatCmp                  0      0.00%     66.93% # Class of executed instruction
system.cpu4.op_class::SimdFloatCvt                  0      0.00%     66.93% # Class of executed instruction
system.cpu4.op_class::SimdFloatDiv                  0      0.00%     66.93% # Class of executed instruction
system.cpu4.op_class::SimdFloatMisc                 0      0.00%     66.93% # Class of executed instruction
system.cpu4.op_class::SimdFloatMult                 0      0.00%     66.93% # Class of executed instruction
system.cpu4.op_class::SimdFloatMultAcc              0      0.00%     66.93% # Class of executed instruction
system.cpu4.op_class::SimdFloatSqrt                 0      0.00%     66.93% # Class of executed instruction
system.cpu4.op_class::MemRead                 9201655     21.98%     88.91% # Class of executed instruction
system.cpu4.op_class::MemWrite                4641245     11.09%    100.00% # Class of executed instruction
system.cpu4.op_class::IprAccess                     0      0.00%    100.00% # Class of executed instruction
system.cpu4.op_class::InstPrefetch                  0      0.00%    100.00% # Class of executed instruction
system.cpu4.op_class::total                  41857771                       # Class of executed instruction
system.ruby.clk_domain.clock                      500                       # Clock period in ticks
system.ruby.delayHist::bucket_size                 64                       # delay histogram for all message
system.ruby.delayHist::max_bucket                 639                       # delay histogram for all message
system.ruby.delayHist::samples               27836827                       # delay histogram for all message
system.ruby.delayHist::mean                  0.806987                       # delay histogram for all message
system.ruby.delayHist::stdev                 2.567061                       # delay histogram for all message
system.ruby.delayHist                    |    27836824    100.00%    100.00% |           0      0.00%    100.00% |           1      0.00%    100.00% |           0      0.00%    100.00% |           1      0.00%    100.00% |           1      0.00%    100.00% |           0      0.00%    100.00% |           0      0.00%    100.00% |           0      0.00%    100.00% |           0      0.00%    100.00% # delay histogram for all message
system.ruby.delayHist::total                 27836827                       # delay histogram for all message
system.ruby.outstanding_req_hist::bucket_size            1                      
system.ruby.outstanding_req_hist::max_bucket            9                      
system.ruby.outstanding_req_hist::samples   1669672090                      
system.ruby.outstanding_req_hist::mean       1.000265                      
system.ruby.outstanding_req_hist::gmean      1.000184                      
system.ruby.outstanding_req_hist::stdev      0.016276                      
system.ruby.outstanding_req_hist         |           0      0.00%      0.00% |  1669229658     99.97%     99.97% |      442432      0.03%    100.00% |           0      0.00%    100.00% |           0      0.00%    100.00% |           0      0.00%    100.00% |           0      0.00%    100.00% |           0      0.00%    100.00% |           0      0.00%    100.00% |           0      0.00%    100.00%
system.ruby.outstanding_req_hist::total    1669672090                      
system.ruby.latency_hist::bucket_size             256                      
system.ruby.latency_hist::max_bucket             2559                      
system.ruby.latency_hist::samples          1669672090                      
system.ruby.latency_hist::mean               1.206143                      
system.ruby.latency_hist::gmean              1.009887                      
system.ruby.latency_hist::stdev              6.337449                      
system.ruby.latency_hist                 |  1669486482     99.99%     99.99% |      150632      0.01%    100.00% |       32415      0.00%    100.00% |        1983      0.00%    100.00% |         567      0.00%    100.00% |          11      0.00%    100.00% |           0      0.00%    100.00% |           0      0.00%    100.00% |           0      0.00%    100.00% |           0      0.00%    100.00%
system.ruby.latency_hist::total            1669672090                      
system.ruby.hit_latency_hist::bucket_size          256                      
system.ruby.hit_latency_hist::max_bucket         2559                      
system.ruby.hit_latency_hist::samples      1669672090                      
system.ruby.hit_latency_hist::mean           1.206143                      
system.ruby.hit_latency_hist::gmean          1.009887                      
system.ruby.hit_latency_hist::stdev          6.337449                      
system.ruby.hit_latency_hist             |  1669486482     99.99%     99.99% |      150632      0.01%    100.00% |       32415      0.00%    100.00% |        1983      0.00%    100.00% |         567      0.00%    100.00% |          11      0.00%    100.00% |           0      0.00%    100.00% |           0      0.00%    100.00% |           0      0.00%    100.00% |           0      0.00%    100.00%
system.ruby.hit_latency_hist::total        1669672090                      
system.ruby.dir_cntrl0.fully_busy_cycles            1                       # cycles for which number of transistions == max transitions
system.ruby.l0_cntrl0.Dcache.demand_hits    378741840                       # Number of cache demand hits
system.ruby.l0_cntrl0.Dcache.demand_misses      1146861                       # Number of cache demand misses
system.ruby.l0_cntrl0.Dcache.demand_accesses    379888701                       # Number of cache demand accesses
system.ruby.l0_cntrl0.Icache.demand_hits   1126520568                       # Number of cache demand hits
system.ruby.l0_cntrl0.Icache.demand_misses         4821                       # Number of cache demand misses
system.ruby.l0_cntrl0.Icache.demand_accesses   1126525389                       # Number of cache demand accesses
system.ruby.l0_cntrl0.Zcache.demand_hits            0                       # Number of cache demand hits
system.ruby.l0_cntrl0.Zcache.demand_misses            0                       # Number of cache demand misses
system.ruby.l0_cntrl0.Zcache.demand_accesses            0                       # Number of cache demand accesses
system.ruby.l0_cntrl1.Dcache.demand_hits     13196747                       # Number of cache demand hits
system.ruby.l0_cntrl1.Dcache.demand_misses       756745                       # Number of cache demand misses
system.ruby.l0_cntrl1.Dcache.demand_accesses     13953492                       # Number of cache demand accesses
system.ruby.l0_cntrl1.Icache.demand_hits     26860071                       # Number of cache demand hits
system.ruby.l0_cntrl1.Icache.demand_misses          937                       # Number of cache demand misses
system.ruby.l0_cntrl1.Icache.demand_accesses     26861008                       # Number of cache demand accesses
system.ruby.l0_cntrl1.Zcache.demand_hits            0                       # Number of cache demand hits
system.ruby.l0_cntrl1.Zcache.demand_misses            0                       # Number of cache demand misses
system.ruby.l0_cntrl1.Zcache.demand_accesses            0                       # Number of cache demand accesses
system.ruby.l0_cntrl2.Dcache.demand_hits     13109743                       # Number of cache demand hits
system.ruby.l0_cntrl2.Dcache.demand_misses       843749                       # Number of cache demand misses
system.ruby.l0_cntrl2.Dcache.demand_accesses     13953492                       # Number of cache demand accesses
system.ruby.l0_cntrl2.Icache.demand_hits     26860133                       # Number of cache demand hits
system.ruby.l0_cntrl2.Icache.demand_misses          875                       # Number of cache demand misses
system.ruby.l0_cntrl2.Icache.demand_accesses     26861008                       # Number of cache demand accesses
system.ruby.l0_cntrl2.Zcache.demand_hits            0                       # Number of cache demand hits
system.ruby.l0_cntrl2.Zcache.demand_misses            0                       # Number of cache demand misses
system.ruby.l0_cntrl2.Zcache.demand_accesses            0                       # Number of cache demand accesses
system.ruby.l0_cntrl3.Dcache.demand_hits     13222450                       # Number of cache demand hits
system.ruby.l0_cntrl3.Dcache.demand_misses       731042                       # Number of cache demand misses
system.ruby.l0_cntrl3.Dcache.demand_accesses     13953492                       # Number of cache demand accesses
system.ruby.l0_cntrl3.Icache.demand_hits     26860145                       # Number of cache demand hits
system.ruby.l0_cntrl3.Icache.demand_misses          863                       # Number of cache demand misses
system.ruby.l0_cntrl3.Icache.demand_accesses     26861008                       # Number of cache demand accesses
system.ruby.l0_cntrl3.Zcache.demand_hits            0                       # Number of cache demand hits
system.ruby.l0_cntrl3.Zcache.demand_misses            0                       # Number of cache demand misses
system.ruby.l0_cntrl3.Zcache.demand_accesses            0                       # Number of cache demand accesses
system.ruby.l0_cntrl4.Dcache.demand_hits     13186389                       # Number of cache demand hits
system.ruby.l0_cntrl4.Dcache.demand_misses       767103                       # Number of cache demand misses
system.ruby.l0_cntrl4.Dcache.demand_accesses     13953492                       # Number of cache demand accesses
system.ruby.l0_cntrl4.Icache.demand_hits     26860122                       # Number of cache demand hits
system.ruby.l0_cntrl4.Icache.demand_misses          886                       # Number of cache demand misses
system.ruby.l0_cntrl4.Icache.demand_accesses     26861008                       # Number of cache demand accesses
system.ruby.l0_cntrl4.Zcache.demand_hits            0                       # Number of cache demand hits
system.ruby.l0_cntrl4.Zcache.demand_misses            0                       # Number of cache demand misses
system.ruby.l0_cntrl4.Zcache.demand_accesses            0                       # Number of cache demand accesses
system.ruby.l1_cntrl0.cache.demand_hits           206                       # Number of cache demand hits
system.ruby.l1_cntrl0.cache.demand_misses      1151476                       # Number of cache demand misses
system.ruby.l1_cntrl0.cache.demand_accesses      1151682                       # Number of cache demand accesses
system.ruby.l1_cntrl1.cache.demand_hits         40924                       # Number of cache demand hits
system.ruby.l1_cntrl1.cache.demand_misses       716758                       # Number of cache demand misses
system.ruby.l1_cntrl1.cache.demand_accesses       757682                       # Number of cache demand accesses
system.ruby.l1_cntrl2.cache.demand_hits         43229                       # Number of cache demand hits
system.ruby.l1_cntrl2.cache.demand_misses       801395                       # Number of cache demand misses
system.ruby.l1_cntrl2.cache.demand_accesses       844624                       # Number of cache demand accesses
system.ruby.l1_cntrl3.cache.demand_hits         43227                       # Number of cache demand hits
system.ruby.l1_cntrl3.cache.demand_misses       688678                       # Number of cache demand misses
system.ruby.l1_cntrl3.cache.demand_accesses       731905                       # Number of cache demand accesses
system.ruby.l1_cntrl4.cache.demand_hits         49122                       # Number of cache demand hits
system.ruby.l1_cntrl4.cache.demand_misses       718867                       # Number of cache demand misses
system.ruby.l1_cntrl4.cache.demand_accesses       767989                       # Number of cache demand accesses
system.ruby.l2_cntrl0.L2cache.demand_hits      2144948                       # Number of cache demand hits
system.ruby.l2_cntrl0.L2cache.demand_misses      1932226                       # Number of cache demand misses
system.ruby.l2_cntrl0.L2cache.demand_accesses      4077174                       # Number of cache demand accesses
system.ruby.l2_cntrl0.fully_busy_cycles          2894                       # cycles for which number of transistions == max transitions
system.ruby.memctrl_clk_domain.clock             1500                       # Clock period in ticks
system.ruby.network.routers00.percent_links_utilized            0                      
system.ruby.network.routers01.percent_links_utilized            0                      
system.ruby.network.routers02.percent_links_utilized            0                      
system.ruby.network.routers03.percent_links_utilized            0                      
system.ruby.network.routers04.percent_links_utilized            0                      
system.ruby.network.routers05.percent_links_utilized     0.192918                      
system.ruby.network.routers05.msg_count.Control::0      1151476                      
system.ruby.network.routers05.msg_count.Request_Control::2         7722                      
system.ruby.network.routers05.msg_count.Response_Data::1      1158674                      
system.ruby.network.routers05.msg_count.Response_Control::1      1150258                      
system.ruby.network.routers05.msg_count.Response_Control::2      1151469                      
system.ruby.network.routers05.msg_count.Writeback_Data::0      1145739                      
system.ruby.network.routers05.msg_count.Writeback_Data::1          422                      
system.ruby.network.routers05.msg_count.Writeback_Control::0          740                      
system.ruby.network.routers05.msg_bytes.Control::0      9211808                      
system.ruby.network.routers05.msg_bytes.Request_Control::2        61776                      
system.ruby.network.routers05.msg_bytes.Response_Data::1     83424528                      
system.ruby.network.routers05.msg_bytes.Response_Control::1      9202064                      
system.ruby.network.routers05.msg_bytes.Response_Control::2      9211752                      
system.ruby.network.routers05.msg_bytes.Writeback_Data::0     82493208                      
system.ruby.network.routers05.msg_bytes.Writeback_Data::1        30384                      
system.ruby.network.routers05.msg_bytes.Writeback_Control::0         5920                      
system.ruby.network.routers06.percent_links_utilized     0.089641                      
system.ruby.network.routers06.msg_count.Control::0       716758                      
system.ruby.network.routers06.msg_count.Request_Control::2        12900                      
system.ruby.network.routers06.msg_count.Response_Data::1       693721                      
system.ruby.network.routers06.msg_count.Response_Control::1       742489                      
system.ruby.network.routers06.msg_count.Response_Control::2       714576                      
system.ruby.network.routers06.msg_count.Writeback_Data::0       267769                      
system.ruby.network.routers06.msg_count.Writeback_Data::1          725                      
system.ruby.network.routers06.msg_count.Writeback_Control::0       400457                      
[...]
system.ruby.L1Cache_Controller.I.L1_Replacement::total         6384                      
system.ruby.L1Cache_Controller.S.Load    |           1     11.11%     11.11% |           2     22.22%     33.33% |           1     11.11%     44.44% |           3     33.33%     77.78% |           2     22.22%    100.00%
system.ruby.L1Cache_Controller.S.Load::total            9                      
system.ruby.L1Cache_Controller.S.Store   |          43      0.02%      0.02% |       36440     19.10%     19.12% |      110567     57.95%     77.07% |        9696      5.08%     82.15% |       34057     17.85%    100.00%
system.ruby.L1Cache_Controller.S.Store::total       190803                      
system.ruby.L1Cache_Controller.S.L0_Invalidate_Own |           0      0.00%      0.00% |        1033     25.99%     25.99% |         977     24.58%     50.57% |         977     24.58%     75.14% |         988     24.86%    100.00%
system.ruby.L1Cache_Controller.S.L0_Invalidate_Own::total         3975                      
system.ruby.L1Cache_Controller.S.L0_Invalidate_Else |           3      1.54%      1.54% |           9      4.62%      6.15% |          57     29.23%     35.38% |          25     12.82%     48.21% |         101     51.79%    100.00%
system.ruby.L1Cache_Controller.S.L0_Invalidate_Else::total          195                      
system.ruby.L1Cache_Controller.SS.Load   |           5      0.02%      0.02% |        1509      7.30%      7.33% |        6846     33.14%     40.46% |        2257     10.92%     51.39% |       10043     48.61%    100.00%
system.ruby.L1Cache_Controller.SS.Load::total        20660                      
system.ruby.L1Cache_Controller.SS.Store  |           0      0.00%      0.00% |          21     10.00%     10.00% |         110     52.38%     62.38% |           6      2.86%     65.24% |          73     34.76%    100.00%
system.ruby.L1Cache_Controller.SS.Store::total          210                      
system.ruby.L1Cache_Controller.SS.Inv    |        3618      2.63%      2.63% |        2721      1.98%      4.61% |       10775      7.84%     12.45% |       31508     22.93%     35.38% |       88799     64.62%    100.00%
system.ruby.L1Cache_Controller.SS.Inv::total       137421                      
system.ruby.L1Cache_Controller.SS.L1_Replacement |           0      0.00%      0.00% |        1040     25.62%     25.62% |         978     24.09%     49.70% |        1015     25.00%     74.70% |        1027     25.30%    100.00%
system.ruby.L1Cache_Controller.SS.L1_Replacement::total         4060                      
system.ruby.L1Cache_Controller.E.WriteBack |        1071      0.04%      0.04% |      633767     25.43%     25.48% |      567192     22.76%     48.24% |      656989     26.37%     74.61% |      632700     25.39%    100.00%
system.ruby.L1Cache_Controller.E.WriteBack::total      2491719                      
system.ruby.L1Cache_Controller.E.L0_Invalidate_Own |        4885     12.13%     12.13% |        8861     22.01%     34.14% |        8830     21.93%     56.06% |        8751     21.73%     77.80% |        8941     22.20%    100.00%
system.ruby.L1Cache_Controller.E.L0_Invalidate_Own::total        40268                      
system.ruby.L1Cache_Controller.E.L0_Invalidate_Else |          76      0.23%      0.23% |        1503      4.48%      4.71% |        9680     28.88%     33.59% |        4564     13.61%     47.20% |       17699     52.80%    100.00%
system.ruby.L1Cache_Controller.E.L0_Invalidate_Else::total        33522                      
system.ruby.L1Cache_Controller.EE.Load   |           2    100.00%    100.00% |           0      0.00%    100.00% |           0      0.00%    100.00% |           0      0.00%    100.00% |           0      0.00%    100.00%
system.ruby.L1Cache_Controller.EE.Load::total            2                      
system.ruby.L1Cache_Controller.EE.Inv    |          61      2.81%      2.81% |         243     11.20%     14.01% |        1189     54.79%     68.80% |         419     19.31%     88.11% |         258     11.89%    100.00%
system.ruby.L1Cache_Controller.EE.Inv::total         2170                      
system.ruby.L1Cache_Controller.EE.L1_Replacement |        4049     20.80%     20.80% |        3868     19.87%     40.66% |        3895     20.01%     60.67% |        3729     19.15%     79.82% |        3928     20.18%    100.00%
system.ruby.L1Cache_Controller.EE.L1_Replacement::total        19469                      
system.ruby.L1Cache_Controller.EE.Fwd_GETX |           1     50.00%     50.00% |           0      0.00%     50.00% |           0      0.00%     50.00% |           1     50.00%    100.00% |           0      0.00%    100.00%
system.ruby.L1Cache_Controller.EE.Fwd_GETX::total            2                      
system.ruby.L1Cache_Controller.EE.Fwd_GETS |           5     11.11%     11.11% |           9     20.00%     31.11% |           4      8.89%     40.00% |           6     13.33%     53.33% |          21     46.67%    100.00%
system.ruby.L1Cache_Controller.EE.Fwd_GETS::total           45                      
system.ruby.L1Cache_Controller.M.WriteBack |     1143438     79.34%     79.34% |       70715      4.91%     84.24% |      125684      8.72%     92.96% |       46352      3.22%     96.18% |       55082      3.82%    100.00%
system.ruby.L1Cache_Controller.M.WriteBack::total      1441271                      
system.ruby.L1Cache_Controller.M.L0_Invalidate_Own |         892     81.09%     81.09% |          51      4.64%     85.73% |          37      3.36%     89.09% |          79      7.18%     96.27% |          41      3.73%    100.00%
system.ruby.L1Cache_Controller.M.L0_Invalidate_Own::total         1100                      
system.ruby.L1Cache_Controller.M.L0_Invalidate_Else |         507      1.03%      1.03% |        4775      9.73%     10.76% |       21375     43.55%     54.32% |        4254      8.67%     62.99% |       18165     37.01%    100.00%
system.ruby.L1Cache_Controller.M.L0_Invalidate_Else::total        49076                      
system.ruby.L1Cache_Controller.MM.Load   |         170      0.11%      0.11% |       39409     25.27%     25.38% |       36361     23.31%     48.69% |       40960     26.26%     74.95% |       39061     25.05%    100.00%
system.ruby.L1Cache_Controller.MM.Load::total       155961                      
system.ruby.L1Cache_Controller.MM.Store  |          28     36.84%     36.84% |           4      5.26%     42.11% |          21     27.63%     69.74% |           7      9.21%     78.95% |          16     21.05%    100.00%
system.ruby.L1Cache_Controller.MM.Store::total           76                      
system.ruby.L1Cache_Controller.MM.Inv    |         422      2.15%      2.15% |         725      3.70%      5.85% |       10869     55.43%     61.28% |        3288     16.77%     78.05% |        4304     21.95%    100.00%
system.ruby.L1Cache_Controller.MM.Inv::total        19608                      
system.ruby.L1Cache_Controller.MM.L1_Replacement |     1142430     31.17%     31.17% |      664358     18.13%     49.30% |      646723     17.64%     66.94% |      635304     17.33%     84.27% |      576432     15.73%    100.00%
system.ruby.L1Cache_Controller.MM.L1_Replacement::total      3665247                      
system.ruby.L1Cache_Controller.MM.Fwd_GETX |           0      0.00%      0.00% |        3258     12.09%     12.09% |       14246     52.87%     64.96% |        1672      6.21%     71.17% |        7768     28.83%    100.00%
system.ruby.L1Cache_Controller.MM.Fwd_GETX::total        26944                      
system.ruby.L1Cache_Controller.MM.Fwd_GETS |        3615      2.29%      2.29% |        4243      2.68%      4.97% |       17672     11.17%     16.14% |       33779     21.36%     37.50% |       98843     62.50%    100.00%
system.ruby.L1Cache_Controller.MM.Fwd_GETS::total       158152                      
system.ruby.L1Cache_Controller.IS.Data_Exclusive |        6656      0.26%      0.26% |      644280     25.10%     25.36% |      585872     22.83%     48.19% |      670473     26.12%     74.31% |      659503     25.69%    100.00%
system.ruby.L1Cache_Controller.IS.Data_Exclusive::total      2566784                      
system.ruby.L1Cache_Controller.IS.DataS_fromL1 |          43      0.03%      0.03% |       33814     21.37%     21.40% |       98864     62.48%     83.88% |        6332      4.00%     87.88% |       19182     12.12%    100.00%
system.ruby.L1Cache_Controller.IS.DataS_fromL1::total       158235                      
system.ruby.L1Cache_Controller.IS.Data_all_Acks |           7      0.04%      0.04% |        2182     13.49%     13.54% |        5914     36.58%     50.11% |        2132     13.19%     63.30% |        5934     36.70%    100.00%
system.ruby.L1Cache_Controller.IS.Data_all_Acks::total        16169                      
system.ruby.L1Cache_Controller.IM.Data_all_Acks |     1144727     97.70%     97.70% |        1683      0.14%     97.84% |        7782      0.66%     98.50% |        3275      0.28%     98.78% |       14263      1.22%    100.00%
system.ruby.L1Cache_Controller.IM.Data_all_Acks::total      1171730                      
system.ruby.L1Cache_Controller.SM.Inv    |           0      0.00%      0.00% |        1662      6.21%      6.21% |        7714     28.83%     35.04% |        3236     12.09%     47.14% |       14145     52.86%    100.00%
system.ruby.L1Cache_Controller.SM.Inv::total        26757                      
system.ruby.L1Cache_Controller.SM.Ack    |          57      0.03%      0.03% |       34799     21.18%     21.22% |      102963     62.68%     83.90% |        6466      3.94%     87.83% |       19986     12.17%    100.00%
system.ruby.L1Cache_Controller.SM.Ack::total       164271                      
system.ruby.L1Cache_Controller.SM.Ack_all |          43      0.03%      0.03% |       34799     21.19%     21.21% |      102963     62.68%     83.90% |        6466      3.94%     87.83% |       19985     12.17%    100.00%
system.ruby.L1Cache_Controller.SM.Ack_all::total       164256                      
system.ruby.L1Cache_Controller.M_I.Fwd_GETS |           0      0.00%      0.00% |           0      0.00%      0.00% |           0      0.00%      0.00% |          25     65.79%     65.79% |          13     34.21%    100.00%
system.ruby.L1Cache_Controller.M_I.Fwd_GETS::total           38                      
system.ruby.L1Cache_Controller.M_I.WB_Ack |     1146479     31.11%     31.11% |      668226     18.14%     49.25% |      650618     17.66%     66.91% |      639008     17.34%     84.25% |      580347     15.75%    100.00%
system.ruby.L1Cache_Controller.M_I.WB_Ack::total      3684678                      
system.ruby.L1Cache_Controller.SINK_WB_ACK.WB_Ack |           0      0.00%      0.00% |           0      0.00%      0.00% |           0      0.00%      0.00% |          25     65.79%     65.79% |          13     34.21%    100.00%
system.ruby.L1Cache_Controller.SINK_WB_ACK.WB_Ack::total           38                      
system.ruby.L1Cache_Controller.S_IL0.Store |           0      0.00%      0.00% |           6      3.53%      3.53% |          51     30.00%     33.53% |          19     11.18%     44.71% |          94     55.29%    100.00%
system.ruby.L1Cache_Controller.S_IL0.Store::total          170                      
system.ruby.L1Cache_Controller.S_IL0.L0_Invalidate_Own |           0      0.00%      0.00% |        1033     25.99%     25.99% |         977     24.58%     50.57% |         977     24.58%     75.14% |         988     24.86%    100.00%
system.ruby.L1Cache_Controller.S_IL0.L0_Invalidate_Own::total         3975                      
system.ruby.L1Cache_Controller.S_IL0.L0_Invalidate_Else |           3      1.54%      1.54% |           9      4.62%      6.15% |          57     29.23%     35.38% |          25     12.82%     48.21% |         101     51.79%    100.00%
system.ruby.L1Cache_Controller.S_IL0.L0_Invalidate_Else::total          195                      
system.ruby.L1Cache_Controller.S_IL0.L0_Ack |           3      0.07%      0.07% |        1042     24.99%     25.06% |        1034     24.80%     49.86% |        1002     24.03%     73.88% |        1089     26.12%    100.00%
system.ruby.L1Cache_Controller.S_IL0.L0_Ack::total         4170                      
system.ruby.L1Cache_Controller.E_IL0.L0_DataAck |         843      1.62%      1.62% |        6244     11.98%     13.60% |       13422     25.76%     39.36% |        9160     17.58%     56.94% |       22433     43.06%    100.00%
system.ruby.L1Cache_Controller.E_IL0.L0_DataAck::total        52102                      
system.ruby.L1Cache_Controller.E_IL0.L0_Invalidate_Own |        4885     12.13%     12.13% |        8861     22.01%     34.14% |        8830     21.93%     56.06% |        8751     21.73%     77.80% |        8941     22.20%    100.00%
system.ruby.L1Cache_Controller.E_IL0.L0_Invalidate_Own::total        40268                      
system.ruby.L1Cache_Controller.E_IL0.L0_Invalidate_Else |          76      0.23%      0.23% |        1503      4.48%      4.71% |        9680     28.88%     33.59% |        4564     13.61%     47.20% |       17699     52.80%    100.00%
system.ruby.L1Cache_Controller.E_IL0.L0_Invalidate_Else::total        33522                      
system.ruby.L1Cache_Controller.E_IL0.L0_Ack |        4118     18.99%     18.99% |        4120     19.00%     37.98% |        5088     23.46%     61.44% |        4155     19.16%     80.60% |        4207     19.40%    100.00%
system.ruby.L1Cache_Controller.E_IL0.L0_Ack::total        21688                      
system.ruby.L1Cache_Controller.M_IL0.L0_DataAck |        1347      2.70%      2.70% |        4761      9.55%     12.26% |       21342     42.83%     55.09% |        4247      8.52%     63.61% |       18133     36.39%    100.00%
system.ruby.L1Cache_Controller.M_IL0.L0_DataAck::total        49830                      
system.ruby.L1Cache_Controller.M_IL0.L0_Invalidate_Own |         892     81.09%     81.09% |          51      4.64%     85.73% |          37      3.36%     89.09% |          79      7.18%     96.27% |          41      3.73%    100.00%
system.ruby.L1Cache_Controller.M_IL0.L0_Invalidate_Own::total         1100                      
system.ruby.L1Cache_Controller.M_IL0.L0_Invalidate_Else |         507      1.03%      1.03% |        4775      9.73%     10.76% |       21375     43.55%     54.32% |        4254      8.67%     62.99% |       18165     37.01%    100.00%
system.ruby.L1Cache_Controller.M_IL0.L0_Invalidate_Else::total        49076                      
system.ruby.L1Cache_Controller.M_IL0.L0_Ack |          52     15.03%     15.03% |          65     18.79%     33.82% |          70     20.23%     54.05% |          86     24.86%     78.90% |          73     21.10%    100.00%
system.ruby.L1Cache_Controller.M_IL0.L0_Ack::total          346                      
system.ruby.L2Cache_Controller.L1_GETS        2747420      0.00%      0.00%
system.ruby.L2Cache_Controller.L1_GETX        1171913      0.00%      0.00%
system.ruby.L2Cache_Controller.L1_UPGRADE       191014      0.00%      0.00%
system.ruby.L2Cache_Controller.L1_PUTX        3684754      0.00%      0.00%
system.ruby.L2Cache_Controller.L2_Replacement      1151389      0.00%      0.00%
system.ruby.L2Cache_Controller.L2_Replacement_clean       261870      0.00%      0.00%
system.ruby.L2Cache_Controller.Mem_Data       1740939      0.00%      0.00%
system.ruby.L2Cache_Controller.Mem_Ack        1413259      0.00%      0.00%
system.ruby.L2Cache_Controller.WB_Data         168282      0.00%      0.00%
system.ruby.L2Cache_Controller.WB_Data_clean         9561      0.00%      0.00%
system.ruby.L2Cache_Controller.Ack                109      0.00%      0.00%
system.ruby.L2Cache_Controller.Ack_all           2217      0.00%      0.00%
system.ruby.L2Cache_Controller.Unblock         158235      0.00%      0.00%
system.ruby.L2Cache_Controller.Exclusive_Unblock      3902770      0.00%      0.00%
system.ruby.L2Cache_Controller.NP.L1_GETS       957207      0.00%      0.00%
system.ruby.L2Cache_Controller.NP.L1_GETX       783732      0.00%      0.00%
system.ruby.L2Cache_Controller.SS.L1_GETS         3966      0.00%      0.00%
system.ruby.L2Cache_Controller.SS.L1_UPGRADE       164256      0.00%      0.00%
system.ruby.L2Cache_Controller.SS.L1_PUTX           38      0.00%      0.00%
system.ruby.L2Cache_Controller.SS.L2_Replacement           32      0.00%      0.00%
system.ruby.L2Cache_Controller.SS.L2_Replacement_clean           15      0.00%      0.00%
system.ruby.L2Cache_Controller.M.L1_GETS      1615674      0.00%      0.00%
system.ruby.L2Cache_Controller.M.L1_GETX       361052      0.00%      0.00%
system.ruby.L2Cache_Controller.M.L2_Replacement      1150451      0.00%      0.00%
system.ruby.L2Cache_Controller.M.L2_Replacement_clean       240983      0.00%      0.00%
system.ruby.L2Cache_Controller.MT.L1_GETS       158235      0.00%      0.00%
system.ruby.L2Cache_Controller.MT.L1_GETX        26946      0.00%      0.00%
system.ruby.L2Cache_Controller.MT.L1_PUTX      3684678      0.00%      0.00%
system.ruby.L2Cache_Controller.MT.L2_Replacement          906      0.00%      0.00%
system.ruby.L2Cache_Controller.MT.L2_Replacement_clean        20872      0.00%      0.00%
system.ruby.L2Cache_Controller.M_I.L1_GETS            8      0.00%      0.00%
system.ruby.L2Cache_Controller.M_I.L1_GETX            1      0.00%      0.00%
system.ruby.L2Cache_Controller.M_I.Mem_Ack      1413259      0.00%      0.00%
system.ruby.L2Cache_Controller.MT_I.WB_Data          240      0.00%      0.00%
system.ruby.L2Cache_Controller.MT_I.WB_Data_clean            4      0.00%      0.00%
system.ruby.L2Cache_Controller.MT_I.Ack_all          662      0.00%      0.00%
system.ruby.L2Cache_Controller.MCT_I.WB_Data         9835      0.00%      0.00%
system.ruby.L2Cache_Controller.MCT_I.WB_Data_clean         9529      0.00%      0.00%
system.ruby.L2Cache_Controller.MCT_I.Ack_all         1508      0.00%      0.00%
system.ruby.L2Cache_Controller.I_I.Ack             42      0.00%      0.00%
system.ruby.L2Cache_Controller.I_I.Ack_all           15      0.00%      0.00%
system.ruby.L2Cache_Controller.S_I.Ack             67      0.00%      0.00%
system.ruby.L2Cache_Controller.S_I.Ack_all           32      0.00%      0.00%
system.ruby.L2Cache_Controller.ISS.L1_GETS         6097      0.00%      0.00%
system.ruby.L2Cache_Controller.ISS.Mem_Data       951110      0.00%      0.00%
system.ruby.L2Cache_Controller.IS.L1_GETS            9      0.00%      0.00%
system.ruby.L2Cache_Controller.IS.Mem_Data         6097      0.00%      0.00%
system.ruby.L2Cache_Controller.IM.L1_GETX            3      0.00%      0.00%
system.ruby.L2Cache_Controller.IM.Mem_Data       783732      0.00%      0.00%
system.ruby.L2Cache_Controller.SS_MB.L1_GETX          176      0.00%      0.00%
system.ruby.L2Cache_Controller.SS_MB.L1_UPGRADE        26757      0.00%      0.00%
system.ruby.L2Cache_Controller.SS_MB.Exclusive_Unblock       164256      0.00%      0.00%
system.ruby.L2Cache_Controller.MT_MB.L1_GETS         6221      0.00%      0.00%
system.ruby.L2Cache_Controller.MT_MB.L1_GETX            3      0.00%      0.00%
system.ruby.L2Cache_Controller.MT_MB.Exclusive_Unblock      3738514      0.00%      0.00%
system.ruby.L2Cache_Controller.MT_IIB.L1_GETS            3      0.00%      0.00%
system.ruby.L2Cache_Controller.MT_IIB.L1_UPGRADE            1      0.00%      0.00%
system.ruby.L2Cache_Controller.MT_IIB.L1_PUTX           38      0.00%      0.00%
system.ruby.L2Cache_Controller.MT_IIB.WB_Data       156426      0.00%      0.00%
system.ruby.L2Cache_Controller.MT_IIB.WB_Data_clean           28      0.00%      0.00%
system.ruby.L2Cache_Controller.MT_IIB.Unblock         1781      0.00%      0.00%
system.ruby.L2Cache_Controller.MT_IB.WB_Data         1781      0.00%      0.00%
system.ruby.L2Cache_Controller.MT_SB.Unblock       156454      0.00%      0.00%

---------- End Simulation Statistics   ----------
