
---------- Begin Simulation Statistics ----------
sim_seconds                                  0.567810                       # Number of seconds simulated
sim_ticks                                567809925500                       # Number of ticks simulated
final_tick                               567809925500                       # Number of ticks from beginning of simulation (restored from checkpoints and never reset)
sim_freq                                 1000000000000                       # Frequency of simulated ticks
host_inst_rate                                 148318                       # Simulator instruction rate (inst/s)
host_op_rate                                   324588                       # Simulator op (including micro ops) rate (op/s)
host_tick_rate                              197902292                       # Simulator tick rate (ticks/s)
host_mem_usage                                 870708                       # Number of bytes of host memory used
host_seconds                                  2869.14                       # Real time elapsed on the host
sim_insts                                   425546272                       # Number of instructions simulated
sim_ops                                     931289685                       # Number of ops (including micro ops) simulated
system.voltage_domain.voltage                       1                       # Voltage in Volts
system.clk_domain.clock                          1000                       # Clock period in ticks
system.mem_ctrls.bytes_read::ruby.dir_cntrl0     17119104                       # Number of bytes read from this memory
system.mem_ctrls.bytes_read::total           17119104                       # Number of bytes read from this memory
system.mem_ctrls.bytes_written::ruby.dir_cntrl0       341568                       # Number of bytes written to this memory
system.mem_ctrls.bytes_written::total          341568                       # Number of bytes written to this memory
system.mem_ctrls.num_reads::ruby.dir_cntrl0       267486                       # Number of read requests responded to by this memory
system.mem_ctrls.num_reads::total              267486                       # Number of read requests responded to by this memory
system.mem_ctrls.num_writes::ruby.dir_cntrl0         5337                       # Number of write requests responded to by this memory
system.mem_ctrls.num_writes::total               5337                       # Number of write requests responded to by this memory
system.mem_ctrls.bw_read::ruby.dir_cntrl0     30149357                       # Total read bandwidth from this memory (bytes/s)
system.mem_ctrls.bw_read::total              30149357                       # Total read bandwidth from this memory (bytes/s)
system.mem_ctrls.bw_write::ruby.dir_cntrl0       601553                       # Write bandwidth from this memory (bytes/s)
system.mem_ctrls.bw_write::total               601553                       # Write bandwidth from this memory (bytes/s)
system.mem_ctrls.bw_total::ruby.dir_cntrl0     30750910                       # Total bandwidth to/from this memory (bytes/s)
system.mem_ctrls.bw_total::total             30750910                       # Total bandwidth to/from this memory (bytes/s)
system.mem_ctrls.readReqs                      267486                       # Number of read requests accepted
system.mem_ctrls.writeReqs                       5337                       # Number of write requests accepted
system.mem_ctrls.readBursts                    267486                       # Number of DRAM read bursts, including those serviced by the write queue
system.mem_ctrls.writeBursts                     5337                       # Number of DRAM write bursts, including those merged in the write queue
system.mem_ctrls.bytesReadDRAM               17118656                       # Total number of bytes read from DRAM
system.mem_ctrls.bytesReadWrQ                     448                       # Total number of bytes read from write queue
system.mem_ctrls.bytesWritten                  340160                       # Total number of bytes written to DRAM
system.mem_ctrls.bytesReadSys                17119104                       # Total read bytes from the system interface side
system.mem_ctrls.bytesWrittenSys               341568                       # Total written bytes from the system interface side
system.mem_ctrls.servicedByWrQ                      7                       # Number of DRAM read bursts serviced by the write queue
system.mem_ctrls.mergedWrBursts                     0                       # Number of DRAM write bursts merged with an existing one
system.mem_ctrls.neitherReadNorWriteReqs            0                       # Number of requests that are neither read nor write
system.mem_ctrls.perBankRdBursts::0             16700                       # Per bank write bursts
system.mem_ctrls.perBankRdBursts::1             17049                       # Per bank write bursts
system.mem_ctrls.perBankRdBursts::2             17015                       # Per bank write bursts
system.mem_ctrls.perBankRdBursts::3             16592                       # Per bank write bursts
system.mem_ctrls.perBankRdBursts::4             16866                       # Per bank write bursts
system.mem_ctrls.perBankRdBursts::5             17182                       # Per bank write bursts
system.mem_ctrls.perBankRdBursts::6             16971                       # Per bank write bursts
system.mem_ctrls.perBankRdBursts::7             16948                       # Per bank write bursts
system.mem_ctrls.perBankRdBursts::8             16363                       # Per bank write bursts
system.mem_ctrls.perBankRdBursts::9             16514                       # Per bank write bursts
system.mem_ctrls.perBankRdBursts::10            16660                       # Per bank write bursts
system.mem_ctrls.perBankRdBursts::11            16515                       # Per bank write bursts
system.mem_ctrls.perBankRdBursts::12            16442                       # Per bank write bursts
system.mem_ctrls.perBankRdBursts::13            16621                       # Per bank write bursts
system.mem_ctrls.perBankRdBursts::14            16500                       # Per bank write bursts
system.mem_ctrls.perBankRdBursts::15            16541                       # Per bank write bursts
system.mem_ctrls.perBankWrBursts::0               250                       # Per bank write bursts
system.mem_ctrls.perBankWrBursts::1               660                       # Per bank write bursts
system.mem_ctrls.perBankWrBursts::2               560                       # Per bank write bursts
system.mem_ctrls.perBankWrBursts::3               182                       # Per bank write bursts
system.mem_ctrls.perBankWrBursts::4               565                       # Per bank write bursts
system.mem_ctrls.perBankWrBursts::5               865                       # Per bank write bursts
system.mem_ctrls.perBankWrBursts::6               499                       # Per bank write bursts
system.mem_ctrls.perBankWrBursts::7               562                       # Per bank write bursts
system.mem_ctrls.perBankWrBursts::8               117                       # Per bank write bursts
system.mem_ctrls.perBankWrBursts::9               119                       # Per bank write bursts
system.mem_ctrls.perBankWrBursts::10              246                       # Per bank write bursts
system.mem_ctrls.perBankWrBursts::11              181                       # Per bank write bursts
system.mem_ctrls.perBankWrBursts::12               95                       # Per bank write bursts
system.mem_ctrls.perBankWrBursts::13              202                       # Per bank write bursts
system.mem_ctrls.perBankWrBursts::14               82                       # Per bank write bursts
system.mem_ctrls.perBankWrBursts::15              130                       # Per bank write bursts
system.mem_ctrls.numRdRetry                         0                       # Number of times read queue was full causing retry
system.mem_ctrls.numWrRetry                         0                       # Number of times write queue was full causing retry
system.mem_ctrls.totGap                  567809864500                       # Total gap between requests
system.mem_ctrls.readPktSize::0                     0                       # Read request sizes (log2)
system.mem_ctrls.readPktSize::1                     0                       # Read request sizes (log2)
system.mem_ctrls.readPktSize::2                     0                       # Read request sizes (log2)
system.mem_ctrls.readPktSize::3                     0                       # Read request sizes (log2)
system.mem_ctrls.readPktSize::4                     0                       # Read request sizes (log2)
system.mem_ctrls.readPktSize::5                     0                       # Read request sizes (log2)
system.mem_ctrls.readPktSize::6                267486                       # Read request sizes (log2)
system.mem_ctrls.writePktSize::0                    0                       # Write request sizes (log2)
system.mem_ctrls.writePktSize::1                    0                       # Write request sizes (log2)
system.mem_ctrls.writePktSize::2                    0                       # Write request sizes (log2)
system.mem_ctrls.writePktSize::3                    0                       # Write request sizes (log2)
system.mem_ctrls.writePktSize::4                    0                       # Write request sizes (log2)
system.mem_ctrls.writePktSize::5                    0                       # Write request sizes (log2)
system.mem_ctrls.writePktSize::6                 5337                       # Write request sizes (log2)
system.mem_ctrls.rdQLenPdf::0                  267475                       # What read queue length does an incoming req see
system.mem_ctrls.rdQLenPdf::1                       4                       # What read queue length does an incoming req see
system.mem_ctrls.rdQLenPdf::2                       0                       # What read queue length does an incoming req see
system.mem_ctrls.rdQLenPdf::3                       0                       # What read queue length does an incoming req see
system.mem_ctrls.rdQLenPdf::4                       0                       # What read queue length does an incoming req see
system.mem_ctrls.rdQLenPdf::5                       0                       # What read queue length does an incoming req see
system.mem_ctrls.rdQLenPdf::6                       0                       # What read queue length does an incoming req see
system.mem_ctrls.rdQLenPdf::7                       0                       # What read queue length does an incoming req see
system.mem_ctrls.rdQLenPdf::8                       0                       # What read queue length does an incoming req see
system.mem_ctrls.rdQLenPdf::9                       0                       # What read queue length does an incoming req see
system.mem_ctrls.rdQLenPdf::10                      0                       # What read queue length does an incoming req see
system.mem_ctrls.rdQLenPdf::11                      0                       # What read queue length does an incoming req see
system.mem_ctrls.rdQLenPdf::12                      0                       # What read queue length does an incoming req see
system.mem_ctrls.rdQLenPdf::13                      0                       # What read queue length does an incoming req see
system.mem_ctrls.rdQLenPdf::14                      0                       # What read queue length does an incoming req see
system.mem_ctrls.rdQLenPdf::15                      0                       # What read queue length does an incoming req see
system.mem_ctrls.rdQLenPdf::16                      0                       # What read queue length does an incoming req see
system.mem_ctrls.rdQLenPdf::17                      0                       # What read queue length does an incoming req see
system.mem_ctrls.rdQLenPdf::18                      0                       # What read queue length does an incoming req see
system.mem_ctrls.rdQLenPdf::19                      0                       # What read queue length does an incoming req see
system.mem_ctrls.rdQLenPdf::20                      0                       # What read queue length does an incoming req see
system.mem_ctrls.rdQLenPdf::21                      0                       # What read queue length does an incoming req see
system.mem_ctrls.rdQLenPdf::22                      0                       # What read queue length does an incoming req see
system.mem_ctrls.rdQLenPdf::23                      0                       # What read queue length does an incoming req see
system.mem_ctrls.rdQLenPdf::24                      0                       # What read queue length does an incoming req see
system.mem_ctrls.rdQLenPdf::25                      0                       # What read queue length does an incoming req see
system.mem_ctrls.rdQLenPdf::26                      0                       # What read queue length does an incoming req see
system.mem_ctrls.rdQLenPdf::27                      0                       # What read queue length does an incoming req see
system.mem_ctrls.rdQLenPdf::28                      0                       # What read queue length does an incoming req see
system.mem_ctrls.rdQLenPdf::29                      0                       # What read queue length does an incoming req see
system.mem_ctrls.rdQLenPdf::30                      0                       # What read queue length does an incoming req see
system.mem_ctrls.rdQLenPdf::31                      0                       # What read queue length does an incoming req see
system.mem_ctrls.wrQLenPdf::0                       1                       # What write queue length does an incoming req see
system.mem_ctrls.wrQLenPdf::1                       1                       # What write queue length does an incoming req see
system.mem_ctrls.wrQLenPdf::2                       1                       # What write queue length does an incoming req see
system.mem_ctrls.wrQLenPdf::3                       1                       # What write queue length does an incoming req see
system.mem_ctrls.wrQLenPdf::4                       1                       # What write queue length does an incoming req see
system.mem_ctrls.wrQLenPdf::5                       1                       # What write queue length does an incoming req see
system.mem_ctrls.wrQLenPdf::6                       1                       # What write queue length does an incoming req see
system.mem_ctrls.wrQLenPdf::7                       1                       # What write queue length does an incoming req see
system.mem_ctrls.wrQLenPdf::8                       1                       # What write queue length does an incoming req see
system.mem_ctrls.wrQLenPdf::9                       1                       # What write queue length does an incoming req see
system.mem_ctrls.wrQLenPdf::10                      1                       # What write queue length does an incoming req see
system.mem_ctrls.wrQLenPdf::11                      1                       # What write queue length does an incoming req see
system.mem_ctrls.wrQLenPdf::12                      1                       # What write queue length does an incoming req see
system.mem_ctrls.wrQLenPdf::13                      1                       # What write queue length does an incoming req see
system.mem_ctrls.wrQLenPdf::14                      1                       # What write queue length does an incoming req see
system.mem_ctrls.wrQLenPdf::15                     18                       # What write queue length does an incoming req see
system.mem_ctrls.wrQLenPdf::16                     19                       # What write queue length does an incoming req see
system.mem_ctrls.wrQLenPdf::17                    330                       # What write queue length does an incoming req see
system.mem_ctrls.wrQLenPdf::18                    331                       # What write queue length does an incoming req see
system.mem_ctrls.wrQLenPdf::19                    331                       # What write queue length does an incoming req see
system.mem_ctrls.wrQLenPdf::20                    332                       # What write queue length does an incoming req see
system.mem_ctrls.wrQLenPdf::21                    331                       # What write queue length does an incoming req see
system.mem_ctrls.wrQLenPdf::22                    330                       # What write queue length does an incoming req see
system.mem_ctrls.wrQLenPdf::23                    330                       # What write queue length does an incoming req see
system.mem_ctrls.wrQLenPdf::24                    330                       # What write queue length does an incoming req see
system.mem_ctrls.wrQLenPdf::25                    330                       # What write queue length does an incoming req see
system.mem_ctrls.wrQLenPdf::26                    330                       # What write queue length does an incoming req see
system.mem_ctrls.wrQLenPdf::27                    330                       # What write queue length does an incoming req see
system.mem_ctrls.wrQLenPdf::28                    330                       # What write queue length does an incoming req see
system.mem_ctrls.wrQLenPdf::29                    330                       # What write queue length does an incoming req see
system.mem_ctrls.wrQLenPdf::30                    330                       # What write queue length does an incoming req see
system.mem_ctrls.wrQLenPdf::31                    330                       # What write queue length does an incoming req see
system.mem_ctrls.wrQLenPdf::32                    330                       # What write queue length does an incoming req see
system.mem_ctrls.wrQLenPdf::33                      0                       # What write queue length does an incoming req see
system.mem_ctrls.wrQLenPdf::34                      0                       # What write queue length does an incoming req see
system.mem_ctrls.wrQLenPdf::35                      0                       # What write queue length does an incoming req see
system.mem_ctrls.wrQLenPdf::36                      0                       # What write queue length does an incoming req see
system.mem_ctrls.wrQLenPdf::37                      0                       # What write queue length does an incoming req see
system.mem_ctrls.wrQLenPdf::38                      0                       # What write queue length does an incoming req see
system.mem_ctrls.wrQLenPdf::39                      0                       # What write queue length does an incoming req see
system.mem_ctrls.wrQLenPdf::40                      0                       # What write queue length does an incoming req see
system.mem_ctrls.wrQLenPdf::41                      0                       # What write queue length does an incoming req see
system.mem_ctrls.wrQLenPdf::42                      0                       # What write queue length does an incoming req see
system.mem_ctrls.wrQLenPdf::43                      0                       # What write queue length does an incoming req see
system.mem_ctrls.wrQLenPdf::44                      0                       # What write queue length does an incoming req see
system.mem_ctrls.wrQLenPdf::45                      0                       # What write queue length does an incoming req see
system.mem_ctrls.wrQLenPdf::46                      0                       # What write queue length does an incoming req see
system.mem_ctrls.wrQLenPdf::47                      0                       # What write queue length does an incoming req see
system.mem_ctrls.wrQLenPdf::48                      0                       # What write queue length does an incoming req see
system.mem_ctrls.wrQLenPdf::49                      0                       # What write queue length does an incoming req see
system.mem_ctrls.wrQLenPdf::50                      0                       # What write queue length does an incoming req see
system.mem_ctrls.wrQLenPdf::51                      0                       # What write queue length does an incoming req see
system.mem_ctrls.wrQLenPdf::52                      0                       # What write queue length does an incoming req see
system.mem_ctrls.wrQLenPdf::53                      0                       # What write queue length does an incoming req see
system.mem_ctrls.wrQLenPdf::54                      0                       # What write queue length does an incoming req see
system.mem_ctrls.wrQLenPdf::55                      0                       # What write queue length does an incoming req see
system.mem_ctrls.wrQLenPdf::56                      0                       # What write queue length does an incoming req see
system.mem_ctrls.wrQLenPdf::57                      0                       # What write queue length does an incoming req see
system.mem_ctrls.wrQLenPdf::58                      0                       # What write queue length does an incoming req see
system.mem_ctrls.wrQLenPdf::59                      0                       # What write queue length does an incoming req see
system.mem_ctrls.wrQLenPdf::60                      0                       # What write queue length does an incoming req see
system.mem_ctrls.wrQLenPdf::61                      0                       # What write queue length does an incoming req see
system.mem_ctrls.wrQLenPdf::62                      0                       # What write queue length does an incoming req see
system.mem_ctrls.wrQLenPdf::63                      0                       # What write queue length does an incoming req see
system.mem_ctrls.bytesPerActivate::samples        48910                       # Bytes accessed per row activation
system.mem_ctrls.bytesPerActivate::mean    356.923983                       # Bytes accessed per row activation
system.mem_ctrls.bytesPerActivate::gmean   303.118305                       # Bytes accessed per row activation
system.mem_ctrls.bytesPerActivate::stdev   220.629749                       # Bytes accessed per row activation
system.mem_ctrls.bytesPerActivate::0-127         2254      4.61%      4.61% # Bytes accessed per row activation
system.mem_ctrls.bytesPerActivate::128-255         2921      5.97%     10.58% # Bytes accessed per row activation
system.mem_ctrls.bytesPerActivate::256-383        31232     63.86%     74.44% # Bytes accessed per row activation
system.mem_ctrls.bytesPerActivate::384-511         2399      4.90%     79.34% # Bytes accessed per row activation
system.mem_ctrls.bytesPerActivate::512-639         2836      5.80%     85.14% # Bytes accessed per row activation
system.mem_ctrls.bytesPerActivate::640-767         2615      5.35%     90.49% # Bytes accessed per row activation
system.mem_ctrls.bytesPerActivate::768-895         1985      4.06%     94.55% # Bytes accessed per row activation
system.mem_ctrls.bytesPerActivate::896-1023         1297      2.65%     97.20% # Bytes accessed per row activation
system.mem_ctrls.bytesPerActivate::1024-1151         1371      2.80%    100.00% # Bytes accessed per row activation
system.mem_ctrls.bytesPerActivate::total        48910                       # Bytes accessed per row activation
system.mem_ctrls.rdPerTurnAround::samples          330                       # Reads before turning the bus around for writes
system.mem_ctrls.rdPerTurnAround::mean     810.518182                       # Reads before turning the bus around for writes
system.mem_ctrls.rdPerTurnAround::gmean     25.460307                       # Reads before turning the bus around for writes
system.mem_ctrls.rdPerTurnAround::stdev  13081.237625                       # Reads before turning the bus around for writes
system.mem_ctrls.rdPerTurnAround::0-8191          329     99.70%     99.70% # Reads before turning the bus around for writes
system.mem_ctrls.rdPerTurnAround::237568-245759            1      0.30%    100.00% # Reads before turning the bus around for writes
system.mem_ctrls.rdPerTurnAround::total           330                       # Reads before turning the bus around for writes
system.mem_ctrls.wrPerTurnAround::samples          330                       # Writes before turning the bus around for reads
system.mem_ctrls.wrPerTurnAround::mean      16.106061                       # Writes before turning the bus around for reads
system.mem_ctrls.wrPerTurnAround::gmean     16.100334                       # Writes before turning the bus around for reads
system.mem_ctrls.wrPerTurnAround::stdev      0.445470                       # Writes before turning the bus around for reads
system.mem_ctrls.wrPerTurnAround::16              312     94.55%     94.55% # Writes before turning the bus around for reads
system.mem_ctrls.wrPerTurnAround::17                1      0.30%     94.85% # Writes before turning the bus around for reads
system.mem_ctrls.wrPerTurnAround::18               17      5.15%    100.00% # Writes before turning the bus around for reads
system.mem_ctrls.wrPerTurnAround::total           330                       # Writes before turning the bus around for reads
system.mem_ctrls.totQLat                   2427773248                       # Total ticks spent queuing
system.mem_ctrls.totMemAccLat              7443004498                       # Total ticks spent from burst creation until serviced by the DRAM
system.mem_ctrls.totBusLat                 1337395000                       # Total ticks spent in databus transfers
system.mem_ctrls.avgQLat                      9076.50                       # Average queueing delay per DRAM burst
system.mem_ctrls.avgBusLat                    5000.00                       # Average bus latency per DRAM burst
system.mem_ctrls.avgMemAccLat                27826.50                       # Average memory access latency per DRAM burst
system.mem_ctrls.avgRdBW                        30.15                       # Average DRAM read bandwidth in MiByte/s
system.mem_ctrls.avgWrBW                         0.60                       # Average achieved write bandwidth in MiByte/s
system.mem_ctrls.avgRdBWSys                     30.15                       # Average system read bandwidth in MiByte/s
system.mem_ctrls.avgWrBWSys                      0.60                       # Average system write bandwidth in MiByte/s
system.mem_ctrls.peakBW                      12800.00                       # Theoretical peak bandwidth in MiByte/s
system.mem_ctrls.busUtil                         0.24                       # Data bus utilization in percentage
system.mem_ctrls.busUtilRead                     0.24                       # Data bus utilization in percentage for reads
system.mem_ctrls.busUtilWrite                    0.00                       # Data bus utilization in percentage for writes
system.mem_ctrls.avgRdQLen                       1.00                       # Average read queue length when enqueuing
system.mem_ctrls.avgWrQLen                      11.79                       # Average write queue length when enqueuing
system.mem_ctrls.readRowHits                   219607                       # Number of row buffer hits during reads
system.mem_ctrls.writeRowHits                    4266                       # Number of row buffer hits during writes
system.mem_ctrls.readRowHitRate                 82.10                       # Row buffer hit rate for reads
system.mem_ctrls.writeRowHitRate                79.93                       # Row buffer hit rate for writes
system.mem_ctrls.avgGap                    2081238.99                       # Average gap between requests
system.mem_ctrls.pageHitRate                    82.06                       # Row buffer hit rate, read and write combined
system.mem_ctrls_0.actEnergy                189385560                       # Energy for activate commands per rank (pJ)
system.mem_ctrls_0.preEnergy                103335375                       # Energy for precharge commands per rank (pJ)
system.mem_ctrls_0.readEnergy              1055371200                       # Energy for read commands per rank (pJ)
system.mem_ctrls_0.writeEnergy               26755920                       # Energy for write commands per rank (pJ)
system.mem_ctrls_0.refreshEnergy          37086229440                       # Energy for refresh commands per rank (pJ)
system.mem_ctrls_0.actBackEnergy         117117765765                       # Energy for active background per rank (pJ)
system.mem_ctrls_0.preBackEnergy         237947970750                       # Energy for precharge background per rank (pJ)
system.mem_ctrls_0.totalEnergy           393526814010                       # Total energy per rank (pJ)
system.mem_ctrls_0.averagePower            693.067134                       # Core power per rank (mW)
system.mem_ctrls_0.memoryStateTime::IDLE 395250666500                       # Time in different power states
system.mem_ctrls_0.memoryStateTime::REF   18960240000                       # Time in different power states
system.mem_ctrls_0.memoryStateTime::PRE_PDN            0                       # Time in different power states
system.mem_ctrls_0.memoryStateTime::ACT  153593862250                       # Time in different power states
system.mem_ctrls_0.memoryStateTime::ACT_PDN            0                       # Time in different power states
system.mem_ctrls_1.actEnergy                180169920                       # Energy for activate commands per rank (pJ)
system.mem_ctrls_1.preEnergy                 98307000                       # Energy for precharge commands per rank (pJ)
system.mem_ctrls_1.readEnergy              1030520400                       # Energy for read commands per rank (pJ)
system.mem_ctrls_1.writeEnergy                7270560                       # Energy for write commands per rank (pJ)
system.mem_ctrls_1.refreshEnergy          37086229440                       # Energy for refresh commands per rank (pJ)
system.mem_ctrls_1.actBackEnergy         115333325190                       # Energy for active background per rank (pJ)
system.mem_ctrls_1.preBackEnergy         239513269500                       # Energy for precharge background per rank (pJ)
system.mem_ctrls_1.totalEnergy           393249092010                       # Total energy per rank (pJ)
system.mem_ctrls_1.averagePower            692.578018                       # Core power per rank (mW)
system.mem_ctrls_1.memoryStateTime::IDLE 397865733250                       # Time in different power states
system.mem_ctrls_1.memoryStateTime::REF   18960240000                       # Time in different power states
system.mem_ctrls_1.memoryStateTime::PRE_PDN            0                       # Time in different power states
system.mem_ctrls_1.memoryStateTime::ACT  150978869250                       # Time in different power states
system.mem_ctrls_1.memoryStateTime::ACT_PDN            0                       # Time in different power states
system.cpu_voltage_domain.voltage                   1                       # Voltage in Volts
system.cpu_clk_domain.clock                       500                       # Clock period in ticks
system.cpu0.apic_clk_domain.clock                8000                       # Clock period in ticks
system.cpu0.workload.num_syscalls                 161                       # Number of system calls
system.cpu0.numCycles                      1135619851                       # number of cpu cycles simulated
system.cpu0.numWorkItemsStarted                     0                       # number of work items this cpu started
system.cpu0.numWorkItemsCompleted                   0                       # number of work items this cpu completed
system.cpu0.committedInsts                  312031100                       # Number of instructions committed
system.cpu0.committedOps                    705397732                       # Number of ops (including micro ops) committed
system.cpu0.num_int_alu_accesses            675552122                       # Number of integer alu accesses
system.cpu0.num_fp_alu_accesses              12623030                       # Number of float alu accesses
system.cpu0.num_func_calls                   17722822                       # number of times a function call or return occured
system.cpu0.num_conditional_control_insts     66252049                       # number of instructions that are conditional controls
system.cpu0.num_int_insts                   675552122                       # number of integer instructions
system.cpu0.num_fp_insts                     12623030                       # number of float instructions
system.cpu0.num_int_register_reads         1455128829                       # number of times the integer registers were read
system.cpu0.num_int_register_writes         622532968                       # number of times the integer registers were written
system.cpu0.num_fp_register_reads            20285319                       # number of times the floating registers were read
system.cpu0.num_fp_register_writes            9922234                       # number of times the floating registers were written
system.cpu0.num_cc_register_reads           573909759                       # number of times the CC registers were read
system.cpu0.num_cc_register_writes          208780387                       # number of times the CC registers were written
system.cpu0.num_mem_refs                    156906526                       # number of memory refs
system.cpu0.num_load_insts                   99844562                       # Number of load instructions
system.cpu0.num_store_insts                  57061964                       # Number of store instructions
system.cpu0.num_idle_cycles                  0.002000                       # Number of idle cycles
system.cpu0.num_busy_cycles              1135619850.998000                       # Number of busy cycles
system.cpu0.not_idle_fraction                1.000000                       # Percentage of non-idle cycles
system.cpu0.idle_fraction                    0.000000                       # Percentage of idle cycles
system.cpu0.Branches                         92479915                       # Number of branches fetched
system.cpu0.op_class::No_OpClass             10373059      1.47%      1.47% # Class of executed instruction
system.cpu0.op_class::IntAlu                483948945     68.61%     70.08% # Class of executed instruction
system.cpu0.op_class::IntMult                     684      0.00%     70.08% # Class of executed instruction
system.cpu0.op_class::IntDiv                 44247329      6.27%     76.35% # Class of executed instruction
system.cpu0.op_class::FloatAdd                9921189      1.41%     77.76% # Class of executed instruction
system.cpu0.op_class::FloatCmp                      0      0.00%     77.76% # Class of executed instruction
system.cpu0.op_class::FloatCvt                      0      0.00%     77.76% # Class of executed instruction
system.cpu0.op_class::FloatMult                     0      0.00%     77.76% # Class of executed instruction
system.cpu0.op_class::FloatDiv                      0      0.00%     77.76% # Class of executed instruction
system.cpu0.op_class::FloatSqrt                     0      0.00%     77.76% # Class of executed instruction
system.cpu0.op_class::SimdAdd                       0      0.00%     77.76% # Class of executed instruction
system.cpu0.op_class::SimdAddAcc                    0      0.00%     77.76% # Class of executed instruction
system.cpu0.op_class::SimdAlu                       0      0.00%     77.76% # Class of executed instruction
system.cpu0.op_class::SimdCmp                       0      0.00%     77.76% # Class of executed instruction
system.cpu0.op_class::SimdCvt                       0      0.00%     77.76% # Class of executed instruction
system.cpu0.op_class::SimdMisc                      0      0.00%     77.76% # Class of executed instruction
system.cpu0.op_class::SimdMult                      0      0.00%     77.76% # Class of executed instruction
system.cpu0.op_class::SimdMultAcc                   0      0.00%     77.76% # Class of executed instruction
system.cpu0.op_class::SimdShift                     0      0.00%     77.76% # Class of executed instruction
system.cpu0.op_class::SimdShiftAcc                  0      0.00%     77.76% # Class of executed instruction
system.cpu0.op_class::SimdSqrt                      0      0.00%     77.76% # Class of executed instruction
system.cpu0.op_class::SimdFloatAdd                  0      0.00%     77.76% # Class of executed instruction
system.cpu0.op_class::SimdFloatAlu                  0      0.00%     77.76% # Class of executed instruction
system.cpu0.op_class::SimdFloatCmp                  0      0.00%     77.76% # Class of executed instruction
system.cpu0.op_class::SimdFloatCvt                  0      0.00%     77.76% # Class of executed instruction
system.cpu0.op_class::SimdFloatDiv                  0      0.00%     77.76% # Class of executed instruction
system.cpu0.op_class::SimdFloatMisc                 0      0.00%     77.76% # Class of executed instruction
system.cpu0.op_class::SimdFloatMult                 0      0.00%     77.76% # Class of executed instruction
system.cpu0.op_class::SimdFloatMultAcc              0      0.00%     77.76% # Class of executed instruction
system.cpu0.op_class::SimdFloatSqrt                 0      0.00%     77.76% # Class of executed instruction
system.cpu0.op_class::MemRead                99844562     14.15%     91.91% # Class of executed instruction
system.cpu0.op_class::MemWrite               57061964      8.09%    100.00% # Class of executed instruction
system.cpu0.op_class::IprAccess                     0      0.00%    100.00% # Class of executed instruction
system.cpu0.op_class::InstPrefetch                  0      0.00%    100.00% # Class of executed instruction
system.cpu0.op_class::total                 705397732                       # Class of executed instruction
system.cpu1.apic_clk_domain.clock                8000                       # Clock period in ticks
system.cpu1.numCycles                      1135392046                       # number of cpu cycles simulated
system.cpu1.numWorkItemsStarted                     0                       # number of work items this cpu started
system.cpu1.numWorkItemsCompleted                   0                       # number of work items this cpu completed
system.cpu1.committedInsts                  113515172                       # Number of instructions committed
system.cpu1.committedOps                    225891953                       # Number of ops (including micro ops) committed
system.cpu1.num_int_alu_accesses            175206524                       # Number of integer alu accesses
system.cpu1.num_fp_alu_accesses             118308549                       # Number of float alu accesses
system.cpu1.num_func_calls                     405825                       # number of times a function call or return occured
system.cpu1.num_conditional_control_insts     12797018                       # number of instructions that are conditional controls
system.cpu1.num_int_insts                   175206524                       # number of integer instructions
system.cpu1.num_fp_insts                    118308549                       # number of float instructions
system.cpu1.num_int_register_reads          330397669                       # number of times the integer registers were read
system.cpu1.num_int_register_writes          94559507                       # number of times the integer registers were written
system.cpu1.num_fp_register_reads           168318048                       # number of times the floating registers were read
system.cpu1.num_fp_register_writes          100559805                       # number of times the floating registers were written
system.cpu1.num_cc_register_reads            76985120                       # number of times the CC registers were read
system.cpu1.num_cc_register_writes           76914105                       # number of times the CC registers were written
system.cpu1.num_mem_refs                     68594840                       # number of memory refs
system.cpu1.num_load_insts                   50642855                       # Number of load instructions
system.cpu1.num_store_insts                  17951985                       # Number of store instructions
system.cpu1.num_idle_cycles              660185216.473955                       # Number of idle cycles
system.cpu1.num_busy_cycles              475206829.526045                       # Number of busy cycles
system.cpu1.not_idle_fraction                0.418540                       # Percentage of non-idle cycles
system.cpu1.idle_fraction                    0.581460                       # Percentage of idle cycles
system.cpu1.Branches                         13417741                       # Number of branches fetched
system.cpu1.op_class::No_OpClass                    9      0.00%      0.00% # Class of executed instruction
system.cpu1.op_class::IntAlu                106014545     46.93%     46.93% # Class of executed instruction
system.cpu1.op_class::IntMult                  597058      0.26%     47.20% # Class of executed instruction
system.cpu1.op_class::IntDiv                       63      0.00%     47.20% # Class of executed instruction
system.cpu1.op_class::FloatAdd               50685438     22.44%     69.63% # Class of executed instruction
system.cpu1.op_class::FloatCmp                      0      0.00%     69.63% # Class of executed instruction
system.cpu1.op_class::FloatCvt                      0      0.00%     69.63% # Class of executed instruction
system.cpu1.op_class::FloatMult                     0      0.00%     69.63% # Class of executed instruction
system.cpu1.op_class::FloatDiv                      0      0.00%     69.63% # Class of executed instruction
system.cpu1.op_class::FloatSqrt                     0      0.00%     69.63% # Class of executed instruction
system.cpu1.op_class::SimdAdd                       0      0.00%     69.63% # Class of executed instruction
system.cpu1.op_class::SimdAddAcc                    0      0.00%     69.63% # Class of executed instruction
system.cpu1.op_class::SimdAlu                       0      0.00%     69.63% # Class of executed instruction
system.cpu1.op_class::SimdCmp                       0      0.00%     69.63% # Class of executed instruction
system.cpu1.op_class::SimdCvt                       0      0.00%     69.63% # Class of executed instruction
system.cpu1.op_class::SimdMisc                      0      0.00%     69.63% # Class of executed instruction
system.cpu1.op_class::SimdMult                      0      0.00%     69.63% # Class of executed instruction
system.cpu1.op_class::SimdMultAcc                   0      0.00%     69.63% # Class of executed instruction
system.cpu1.op_class::SimdShift                     0      0.00%     69.63% # Class of executed instruction
system.cpu1.op_class::SimdShiftAcc                  0      0.00%     69.63% # Class of executed instruction
system.cpu1.op_class::SimdSqrt                      0      0.00%     69.63% # Class of executed instruction
system.cpu1.op_class::SimdFloatAdd                  0      0.00%     69.63% # Class of executed instruction
system.cpu1.op_class::SimdFloatAlu                  0      0.00%     69.63% # Class of executed instruction
system.cpu1.op_class::SimdFloatCmp                  0      0.00%     69.63% # Class of executed instruction
system.cpu1.op_class::SimdFloatCvt                  0      0.00%     69.63% # Class of executed instruction
system.cpu1.op_class::SimdFloatDiv                  0      0.00%     69.63% # Class of executed instruction
system.cpu1.op_class::SimdFloatMisc                 0      0.00%     69.63% # Class of executed instruction
system.cpu1.op_class::SimdFloatMult                 0      0.00%     69.63% # Class of executed instruction
system.cpu1.op_class::SimdFloatMultAcc              0      0.00%     69.63% # Class of executed instruction
system.cpu1.op_class::SimdFloatSqrt                 0      0.00%     69.63% # Class of executed instruction
system.cpu1.op_class::MemRead                50642855     22.42%     92.05% # Class of executed instruction
system.cpu1.op_class::MemWrite               17951985      7.95%    100.00% # Class of executed instruction
system.cpu1.op_class::IprAccess                     0      0.00%    100.00% # Class of executed instruction
system.cpu1.op_class::InstPrefetch                  0      0.00%    100.00% # Class of executed instruction
system.cpu1.op_class::total                 225891953                       # Class of executed instruction
system.ruby.clk_domain.clock                      500                       # Clock period in ticks
system.ruby.delayHist::bucket_size                  8                       # delay histogram for all message
system.ruby.delayHist::max_bucket                  79                       # delay histogram for all message
system.ruby.delayHist::samples               12437370                       # delay histogram for all message
system.ruby.delayHist::mean                  0.528874                       # delay histogram for all message
system.ruby.delayHist::stdev                 1.987555                       # delay histogram for all message
system.ruby.delayHist                    |    11615685     93.39%     93.39% |      821684      6.61%    100.00% |           0      0.00%    100.00% |           0      0.00%    100.00% |           0      0.00%    100.00% |           1      0.00%    100.00% |           0      0.00%    100.00% |           0      0.00%    100.00% |           0      0.00%    100.00% |           0      0.00%    100.00% # delay histogram for all message
system.ruby.delayHist::total                 12437370                       # delay histogram for all message
system.ruby.outstanding_req_hist::bucket_size            1                      
system.ruby.outstanding_req_hist::max_bucket            9                      
system.ruby.outstanding_req_hist::samples    768476632                      
system.ruby.outstanding_req_hist::mean       1.001343                      
system.ruby.outstanding_req_hist::gmean      1.000931                      
system.ruby.outstanding_req_hist::stdev      0.036626                      
system.ruby.outstanding_req_hist         |           0      0.00%      0.00% |   767444388     99.87%     99.87% |     1032244      0.13%    100.00% |           0      0.00%    100.00% |           0      0.00%    100.00% |           0      0.00%    100.00% |           0      0.00%    100.00% |           0      0.00%    100.00% |           0      0.00%    100.00% |           0      0.00%    100.00%
system.ruby.outstanding_req_hist::total     768476632                      
system.ruby.latency_hist::bucket_size             128                      
system.ruby.latency_hist::max_bucket             1279                      
system.ruby.latency_hist::samples           768476632                      
system.ruby.latency_hist::mean               1.098102                      
system.ruby.latency_hist::gmean              1.011805                      
system.ruby.latency_hist::stdev              3.070269                      
system.ruby.latency_hist                 |   768428570     99.99%     99.99% |       39105      0.01%    100.00% |        1149      0.00%    100.00% |        1432      0.00%    100.00% |        5861      0.00%    100.00% |         513      0.00%    100.00% |           0      0.00%    100.00% |           0      0.00%    100.00% |           2      0.00%    100.00% |           0      0.00%    100.00%
system.ruby.latency_hist::total             768476632                      
system.ruby.hit_latency_hist::bucket_size          128                      
system.ruby.hit_latency_hist::max_bucket         1279                      
system.ruby.hit_latency_hist::samples       768476632                      
system.ruby.hit_latency_hist::mean           1.098102                      
system.ruby.hit_latency_hist::gmean          1.011805                      
system.ruby.hit_latency_hist::stdev          3.070269                      
system.ruby.hit_latency_hist             |   768428570     99.99%     99.99% |       39105      0.01%    100.00% |        1149      0.00%    100.00% |        1432      0.00%    100.00% |        5861      0.00%    100.00% |         513      0.00%    100.00% |           0      0.00%    100.00% |           0      0.00%    100.00% |           2      0.00%    100.00% |           0      0.00%    100.00%
system.ruby.hit_latency_hist::total         768476632                      
system.ruby.l0_cntrl0.Dcache.demand_hits    156638077                       # Number of cache demand hits
system.ruby.l0_cntrl0.Dcache.demand_misses       268501                       # Number of cache demand misses
system.ruby.l0_cntrl0.Dcache.demand_accesses    156906578                       # Number of cache demand accesses
system.ruby.l0_cntrl0.Icache.demand_hits    393478601                       # Number of cache demand hits
system.ruby.l0_cntrl0.Icache.demand_misses         3152                       # Number of cache demand misses
system.ruby.l0_cntrl0.Icache.demand_accesses    393481753                       # Number of cache demand accesses
system.ruby.l0_cntrl0.Zcache.demand_hits            0                       # Number of cache demand hits
system.ruby.l0_cntrl0.Zcache.demand_misses            0                       # Number of cache demand misses
system.ruby.l0_cntrl0.Zcache.demand_accesses            0                       # Number of cache demand accesses
system.ruby.l0_cntrl1.Dcache.demand_hits     66169033                       # Number of cache demand hits
system.ruby.l0_cntrl1.Dcache.demand_misses      3457999                       # Number of cache demand misses
system.ruby.l0_cntrl1.Dcache.demand_accesses     69627032                       # Number of cache demand accesses
system.ruby.l0_cntrl1.Icache.demand_hits    148458897                       # Number of cache demand hits
system.ruby.l0_cntrl1.Icache.demand_misses         2372                       # Number of cache demand misses
system.ruby.l0_cntrl1.Icache.demand_accesses    148461269                       # Number of cache demand accesses
system.ruby.l0_cntrl1.Zcache.demand_hits            0                       # Number of cache demand hits
system.ruby.l0_cntrl1.Zcache.demand_misses            0                       # Number of cache demand misses
system.ruby.l0_cntrl1.Zcache.demand_accesses            0                       # Number of cache demand accesses
system.ruby.l1_cntrl0.cache.demand_hits         14710                       # Number of cache demand hits
system.ruby.l1_cntrl0.cache.demand_misses       256943                       # Number of cache demand misses
system.ruby.l1_cntrl0.cache.demand_accesses       271653                       # Number of cache demand accesses
system.ruby.l1_cntrl1.cache.demand_hits       2029350                       # Number of cache demand hits
system.ruby.l1_cntrl1.cache.demand_misses      1431021                       # Number of cache demand misses
system.ruby.l1_cntrl1.cache.demand_accesses      3460371                       # Number of cache demand accesses
system.ruby.l2_cntrl0.L2cache.demand_hits      1416502                       # Number of cache demand hits
system.ruby.l2_cntrl0.L2cache.demand_misses       271462                       # Number of cache demand misses
system.ruby.l2_cntrl0.L2cache.demand_accesses      1687964                       # Number of cache demand accesses
system.ruby.l2_cntrl0.fully_busy_cycles             1                       # cycles for which number of transistions == max transitions
system.ruby.memctrl_clk_domain.clock             1500                       # Clock period in ticks
system.ruby.network.routers0.percent_links_utilized            0                      
system.ruby.network.routers1.percent_links_utilized            0                      
system.ruby.network.routers2.percent_links_utilized     0.119433                      
system.ruby.network.routers2.msg_count.Control::0       256943                      
system.ruby.network.routers2.msg_count.Request_Control::2         8155                      
system.ruby.network.routers2.msg_count.Response_Data::1       264828                      
system.ruby.network.routers2.msg_count.Response_Control::1       255922                      
system.ruby.network.routers2.msg_count.Response_Control::2       256943                      
system.ruby.network.routers2.msg_count.Writeback_Data::0       251284                      
system.ruby.network.routers2.msg_count.Writeback_Data::1          186                      
system.ruby.network.routers2.msg_count.Writeback_Control::0          582                      
system.ruby.network.routers2.msg_bytes.Control::0      2055544                      
system.ruby.network.routers2.msg_bytes.Request_Control::2        65240                      
system.ruby.network.routers2.msg_bytes.Response_Data::1     19067616                      
system.ruby.network.routers2.msg_bytes.Response_Control::1      2047376                      
system.ruby.network.routers2.msg_bytes.Response_Control::2      2055544                      
system.ruby.network.routers2.msg_bytes.Writeback_Data::0     18092448                      
system.ruby.network.routers2.msg_bytes.Writeback_Data::1        13392                      
system.ruby.network.routers2.msg_bytes.Writeback_Control::0         4656                      
system.ruby.network.routers3.percent_links_utilized     0.507823                      
system.ruby.network.routers3.msg_count.Control::0      1431021                      
system.ruby.network.routers3.msg_count.Request_Control::2           43                      
system.ruby.network.routers3.msg_count.Response_Data::1      1427254                      
system.ruby.network.routers3.msg_count.Response_Control::1      1422447                      
system.ruby.network.routers3.msg_count.Response_Control::2      1422729                      
system.ruby.network.routers3.msg_count.Writeback_Data::0       566425                      
system.ruby.network.routers3.msg_count.Writeback_Control::0       848384                      
system.ruby.network.routers3.msg_bytes.Control::0     11448168                      
system.ruby.network.routers3.msg_bytes.Request_Control::2          344                      
system.ruby.network.routers3.msg_bytes.Response_Data::1    102762288                      
system.ruby.network.routers3.msg_bytes.Response_Control::1     11379576                      
system.ruby.network.routers3.msg_bytes.Response_Control::2     11381832                      
system.ruby.network.routers3.msg_bytes.Writeback_Data::0     40782600                      
system.ruby.network.routers3.msg_bytes.Writeback_Control::0      6787072                      
system.ruby.network.routers4.percent_links_utilized     0.685602                      
system.ruby.network.routers4.msg_count.Control::0      1955450                      
system.ruby.network.routers4.msg_count.Request_Control::2         8196                      
system.ruby.network.routers4.msg_count.Response_Data::1      1956953                      
system.ruby.network.routers4.msg_count.Response_Control::1      1677408                      
system.ruby.network.routers4.msg_count.Response_Control::2      1679672                      
system.ruby.network.routers4.msg_count.Writeback_Data::0       817709                      
system.ruby.network.routers4.msg_count.Writeback_Data::1          186                      
system.ruby.network.routers4.msg_count.Writeback_Control::0       848966                      
system.ruby.network.routers4.msg_bytes.Control::0     15643600                      
system.ruby.network.routers4.msg_bytes.Request_Control::2        65568                      
system.ruby.network.routers4.msg_bytes.Response_Data::1    140900616                      
system.ruby.network.routers4.msg_bytes.Response_Control::1     13419264                      
system.ruby.network.routers4.msg_bytes.Response_Control::2     13437376                      
system.ruby.network.routers4.msg_bytes.Writeback_Data::0     58875048                      
system.ruby.network.routers4.msg_bytes.Writeback_Data::1        13392                      
system.ruby.network.routers4.msg_bytes.Writeback_Control::0      6791728                      
system.ruby.network.routers5.percent_links_utilized     0.060090                      
system.ruby.network.routers5.msg_count.Control::0       267486                      
system.ruby.network.routers5.msg_count.Response_Data::1       272823                      
system.ruby.network.routers5.msg_count.Response_Control::1         6701                      
system.ruby.network.routers5.msg_bytes.Control::0      2139888                      
system.ruby.network.routers5.msg_bytes.Response_Data::1     19643256                      
system.ruby.network.routers5.msg_bytes.Response_Control::1        53608                      
system.ruby.network.routers6.percent_links_utilized     0.228825                      
system.ruby.network.routers6.msg_count.Control::0      1955450                      
system.ruby.network.routers6.msg_count.Request_Control::2         8198                      
system.ruby.network.routers6.msg_count.Response_Data::1      1960929                      
system.ruby.network.routers6.msg_count.Response_Control::1      1681239                      
system.ruby.network.routers6.msg_count.Response_Control::2      1679672                      
system.ruby.network.routers6.msg_count.Writeback_Data::0       817709                      
system.ruby.network.routers6.msg_count.Writeback_Data::1          186                      
system.ruby.network.routers6.msg_count.Writeback_Control::0       848966                      
system.ruby.network.routers6.msg_bytes.Control::0     15643600                      
system.ruby.network.routers6.msg_bytes.Request_Control::2        65584                      
system.ruby.network.routers6.msg_bytes.Response_Data::1    141186888                      
system.ruby.network.routers6.msg_bytes.Response_Control::1     13449912                      
system.ruby.network.routers6.msg_bytes.Response_Control::2     13437376                      
system.ruby.network.routers6.msg_bytes.Writeback_Data::0     58875048                      
system.ruby.network.routers6.msg_bytes.Writeback_Data::1        13392                      
system.ruby.network.routers6.msg_bytes.Writeback_Control::0      6791728                      
system.ruby.network.msg_count.Control         5866350                      
system.ruby.network.msg_count.Request_Control        24592                      
system.ruby.network.msg_count.Response_Data      5882787                      
system.ruby.network.msg_count.Response_Control     10082733                      
system.ruby.network.msg_count.Writeback_Data      2453685                      
system.ruby.network.msg_count.Writeback_Control      2546898                      
system.ruby.network.msg_byte.Control         46930800                      
system.ruby.network.msg_byte.Request_Control       196736                      
system.ruby.network.msg_byte.Response_Data    423560664                      
system.ruby.network.msg_byte.Response_Control     80661864                      
system.ruby.network.msg_byte.Writeback_Data    176665320                      
system.ruby.network.msg_byte.Writeback_Control     20375184                      
system.ruby.network.routers0.throttle0.link_utilization            0                      
system.ruby.network.routers0.throttle1.link_utilization            0                      
system.ruby.network.routers1.throttle0.link_utilization            0                      
system.ruby.network.routers1.throttle1.link_utilization            0                      
system.ruby.network.routers2.throttle0.link_utilization     0.113258                      
system.ruby.network.routers2.throttle0.msg_count.Request_Control::2         8155                      
system.ruby.network.routers2.throttle0.msg_count.Response_Data::1       256921                      
system.ruby.network.routers2.throttle0.msg_count.Response_Control::1       251910                      
system.ruby.network.routers2.throttle0.msg_bytes.Request_Control::2        65240                      
system.ruby.network.routers2.throttle0.msg_bytes.Response_Data::1     18498312                      
system.ruby.network.routers2.throttle0.msg_bytes.Response_Control::1      2015280                      
system.ruby.network.routers2.throttle1.link_utilization     0.125609                      
system.ruby.network.routers2.throttle1.msg_count.Control::0       256943                      
system.ruby.network.routers2.throttle1.msg_count.Response_Data::1         7907                      
system.ruby.network.routers2.throttle1.msg_count.Response_Control::1         4012                      
system.ruby.network.routers2.throttle1.msg_count.Response_Control::2       256943                      
system.ruby.network.routers2.throttle1.msg_count.Writeback_Data::0       251284                      
system.ruby.network.routers2.throttle1.msg_count.Writeback_Data::1          186                      
system.ruby.network.routers2.throttle1.msg_count.Writeback_Control::0          582                      
system.ruby.network.routers2.throttle1.msg_bytes.Control::0      2055544                      
system.ruby.network.routers2.throttle1.msg_bytes.Response_Data::1       569304                      
system.ruby.network.routers2.throttle1.msg_bytes.Response_Control::1        32096                      
system.ruby.network.routers2.throttle1.msg_bytes.Response_Control::2      2055544                      
system.ruby.network.routers2.throttle1.msg_bytes.Writeback_Data::0     18092448                      
system.ruby.network.routers2.throttle1.msg_bytes.Writeback_Data::1        13392                      
system.ruby.network.routers2.throttle1.msg_bytes.Writeback_Control::0         4656                      
system.ruby.network.routers3.throttle0.link_utilization     0.628177                      
system.ruby.network.routers3.throttle0.msg_count.Request_Control::2           43                      
system.ruby.network.routers3.throttle0.msg_count.Response_Data::1      1427216                      
system.ruby.network.routers3.throttle0.msg_count.Response_Control::1      1422423                      
system.ruby.network.routers3.throttle0.msg_bytes.Request_Control::2          344                      
system.ruby.network.routers3.throttle0.msg_bytes.Response_Data::1    102759552                      
system.ruby.network.routers3.throttle0.msg_bytes.Response_Control::1     11379384                      
system.ruby.network.routers3.throttle1.link_utilization     0.387468                      
system.ruby.network.routers3.throttle1.msg_count.Control::0      1431021                      
system.ruby.network.routers3.throttle1.msg_count.Response_Data::1           38                      
system.ruby.network.routers3.throttle1.msg_count.Response_Control::1           24                      
system.ruby.network.routers3.throttle1.msg_count.Response_Control::2      1422729                      
system.ruby.network.routers3.throttle1.msg_count.Writeback_Data::0       566425                      
system.ruby.network.routers3.throttle1.msg_count.Writeback_Control::0       848384                      
system.ruby.network.routers3.throttle1.msg_bytes.Control::0     11448168                      
system.ruby.network.routers3.throttle1.msg_bytes.Response_Data::1         2736                      
system.ruby.network.routers3.throttle1.msg_bytes.Response_Control::1          192                      
system.ruby.network.routers3.throttle1.msg_bytes.Response_Control::2     11381832                      
system.ruby.network.routers3.throttle1.msg_bytes.Writeback_Data::0     40782600                      
system.ruby.network.routers3.throttle1.msg_bytes.Writeback_Control::0      6787072                      
system.ruby.network.routers4.throttle0.link_utilization     0.617591                      
system.ruby.network.routers4.throttle0.msg_count.Control::0      1687964                      
system.ruby.network.routers4.throttle0.msg_count.Response_Data::1       271455                      
system.ruby.network.routers4.throttle0.msg_count.Response_Control::1         6224                      
system.ruby.network.routers4.throttle0.msg_count.Response_Control::2      1679672                      
system.ruby.network.routers4.throttle0.msg_count.Writeback_Data::0       817709                      
system.ruby.network.routers4.throttle0.msg_count.Writeback_Data::1          186                      
system.ruby.network.routers4.throttle0.msg_count.Writeback_Control::0       848966                      
system.ruby.network.routers4.throttle0.msg_bytes.Control::0     13503712                      
system.ruby.network.routers4.throttle0.msg_bytes.Response_Data::1     19544760                      
system.ruby.network.routers4.throttle0.msg_bytes.Response_Control::1        49792                      
system.ruby.network.routers4.throttle0.msg_bytes.Response_Control::2     13437376                      
system.ruby.network.routers4.throttle0.msg_bytes.Writeback_Data::0     58875048                      
system.ruby.network.routers4.throttle0.msg_bytes.Writeback_Data::1        13392                      
system.ruby.network.routers4.throttle0.msg_bytes.Writeback_Control::0      6791728                      
system.ruby.network.routers4.throttle1.link_utilization     0.753613                      
system.ruby.network.routers4.throttle1.msg_count.Control::0       267486                      
system.ruby.network.routers4.throttle1.msg_count.Request_Control::2         8196                      
system.ruby.network.routers4.throttle1.msg_count.Response_Data::1      1685498                      
system.ruby.network.routers4.throttle1.msg_count.Response_Control::1      1671184                      
system.ruby.network.routers4.throttle1.msg_bytes.Control::0      2139888                      
system.ruby.network.routers4.throttle1.msg_bytes.Request_Control::2        65568                      
system.ruby.network.routers4.throttle1.msg_bytes.Response_Data::1    121355856                      
system.ruby.network.routers4.throttle1.msg_bytes.Response_Control::1     13369472                      
system.ruby.network.routers5.throttle0.link_utilization     0.013922                      
system.ruby.network.routers5.throttle0.msg_count.Control::0       267486                      
system.ruby.network.routers5.throttle0.msg_count.Response_Data::1         5337                      
system.ruby.network.routers5.throttle0.msg_count.Response_Control::1          682                      
system.ruby.network.routers5.throttle0.msg_bytes.Control::0      2139888                      
system.ruby.network.routers5.throttle0.msg_bytes.Response_Data::1       384264                      
system.ruby.network.routers5.throttle0.msg_bytes.Response_Control::1         5456                      
system.ruby.network.routers5.throttle1.link_utilization     0.106259                      
system.ruby.network.routers5.throttle1.msg_count.Response_Data::1       267486                      
system.ruby.network.routers5.throttle1.msg_count.Response_Control::1         6019                      
system.ruby.network.routers5.throttle1.msg_bytes.Response_Data::1     19258992                      
system.ruby.network.routers5.throttle1.msg_bytes.Response_Control::1        48152                      
system.ruby.network.routers6.throttle0.link_utilization            0                      
system.ruby.network.routers6.throttle1.link_utilization            0                      
system.ruby.network.routers6.throttle2.link_utilization     0.113258                      
system.ruby.network.routers6.throttle2.msg_count.Request_Control::2         8155                      
system.ruby.network.routers6.throttle2.msg_count.Response_Data::1       256921                      
system.ruby.network.routers6.throttle2.msg_count.Response_Control::1       251910                      
system.ruby.network.routers6.throttle2.msg_bytes.Request_Control::2        65240                      
system.ruby.network.routers6.throttle2.msg_bytes.Response_Data::1     18498312                      
system.ruby.network.routers6.throttle2.msg_bytes.Response_Control::1      2015280                      
system.ruby.network.routers6.throttle3.link_utilization     0.628177                      
system.ruby.network.routers6.throttle3.msg_count.Request_Control::2           43                      
system.ruby.network.routers6.throttle3.msg_count.Response_Data::1      1427216                      
system.ruby.network.routers6.throttle3.msg_count.Response_Control::1      1422423                      
system.ruby.network.routers6.throttle3.msg_bytes.Request_Control::2          344                      
system.ruby.network.routers6.throttle3.msg_bytes.Response_Data::1    102759552                      
system.ruby.network.routers6.throttle3.msg_bytes.Response_Control::1     11379384                      
system.ruby.network.routers6.throttle4.link_utilization     0.617591                      
system.ruby.network.routers6.throttle4.msg_count.Control::0      1687964                      
system.ruby.network.routers6.throttle4.msg_count.Response_Data::1       271455                      
system.ruby.network.routers6.throttle4.msg_count.Response_Control::1         6224                      
system.ruby.network.routers6.throttle4.msg_count.Response_Control::2      1679672                      
system.ruby.network.routers6.throttle4.msg_count.Writeback_Data::0       817709                      
system.ruby.network.routers6.throttle4.msg_count.Writeback_Data::1          186                      
system.ruby.network.routers6.throttle4.msg_count.Writeback_Control::0       848966                      
system.ruby.network.routers6.throttle4.msg_bytes.Control::0     13503712                      
system.ruby.network.routers6.throttle4.msg_bytes.Response_Data::1     19544760                      
system.ruby.network.routers6.throttle4.msg_bytes.Response_Control::1        49792                      
system.ruby.network.routers6.throttle4.msg_bytes.Response_Control::2     13437376                      
system.ruby.network.routers6.throttle4.msg_bytes.Writeback_Data::0     58875048                      
system.ruby.network.routers6.throttle4.msg_bytes.Writeback_Data::1        13392                      
system.ruby.network.routers6.throttle4.msg_bytes.Writeback_Control::0      6791728                      
system.ruby.network.routers6.throttle5.link_utilization     0.013922                      
system.ruby.network.routers6.throttle5.msg_count.Control::0       267486                      
system.ruby.network.routers6.throttle5.msg_count.Response_Data::1         5337                      
system.ruby.network.routers6.throttle5.msg_count.Response_Control::1          682                      
system.ruby.network.routers6.throttle5.msg_bytes.Control::0      2139888                      
system.ruby.network.routers6.throttle5.msg_bytes.Response_Data::1       384264                      
system.ruby.network.routers6.throttle5.msg_bytes.Response_Control::1         5456                      
system.ruby.delayVCHist.vnet_0::bucket_size            8                       # delay histogram for vnet_0
system.ruby.delayVCHist.vnet_0::max_bucket           79                       # delay histogram for vnet_0
system.ruby.delayVCHist.vnet_0::samples       5034311                       # delay histogram for vnet_0
system.ruby.delayVCHist.vnet_0::mean         1.299457                       # delay histogram for vnet_0
system.ruby.delayVCHist.vnet_0::stdev        2.950815                       # delay histogram for vnet_0
system.ruby.delayVCHist.vnet_0           |     4216596     83.76%     83.76% |      817714     16.24%    100.00% |           0      0.00%    100.00% |           0      0.00%    100.00% |           0      0.00%    100.00% |           1      0.00%    100.00% |           0      0.00%    100.00% |           0      0.00%    100.00% |           0      0.00%    100.00% |           0      0.00%    100.00% # delay histogram for vnet_0
system.ruby.delayVCHist.vnet_0::total         5034311                       # delay histogram for vnet_0
system.ruby.delayVCHist.vnet_1::bucket_size            1                       # delay histogram for vnet_1
system.ruby.delayVCHist.vnet_1::max_bucket            9                       # delay histogram for vnet_1
system.ruby.delayVCHist.vnet_1::samples       7368359                       # delay histogram for vnet_1
system.ruby.delayVCHist.vnet_1::mean         0.004310                       # delay histogram for vnet_1
system.ruby.delayVCHist.vnet_1::stdev        0.185645                       # delay histogram for vnet_1
system.ruby.delayVCHist.vnet_1           |     7364389     99.95%     99.95% |           0      0.00%     99.95% |           0      0.00%     99.95% |           0      0.00%     99.95% |           0      0.00%     99.95% |           0      0.00%     99.95% |           0      0.00%     99.95% |           0      0.00%     99.95% |        3970      0.05%    100.00% |           0      0.00%    100.00% # delay histogram for vnet_1
system.ruby.delayVCHist.vnet_1::total         7368359                       # delay histogram for vnet_1
system.ruby.delayVCHist.vnet_2::bucket_size            1                       # delay histogram for vnet_2
system.ruby.delayVCHist.vnet_2::max_bucket            9                       # delay histogram for vnet_2
system.ruby.delayVCHist.vnet_2::samples         34700                       # delay histogram for vnet_2
system.ruby.delayVCHist.vnet_2::mean         0.120029                       # delay histogram for vnet_2
system.ruby.delayVCHist.vnet_2::stdev        0.765346                       # delay histogram for vnet_2
system.ruby.delayVCHist.vnet_2           |       33867     97.60%     97.60% |           0      0.00%     97.60% |           0      0.00%     97.60% |           0      0.00%     97.60% |           0      0.00%     97.60% |         833      2.40%    100.00% |           0      0.00%    100.00% |           0      0.00%    100.00% |           0      0.00%    100.00% |           0      0.00%    100.00% # delay histogram for vnet_2
system.ruby.delayVCHist.vnet_2::total           34700                       # delay histogram for vnet_2
system.ruby.LD.latency_hist::bucket_size          128                      
system.ruby.LD.latency_hist::max_bucket          1279                      
system.ruby.LD.latency_hist::samples        145355762                      
system.ruby.LD.latency_hist::mean            1.275912                      
system.ruby.LD.latency_hist::gmean           1.054580                      
system.ruby.LD.latency_hist::stdev           2.525516                      
system.ruby.LD.latency_hist              |   145354269    100.00%    100.00% |        1072      0.00%    100.00% |         137      0.00%    100.00% |         158      0.00%    100.00% |          86      0.00%    100.00% |          38      0.00%    100.00% |           0      0.00%    100.00% |           0      0.00%    100.00% |           2      0.00%    100.00% |           0      0.00%    100.00%
system.ruby.LD.latency_hist::total          145355762                      
system.ruby.LD.hit_latency_hist::bucket_size          128                      
system.ruby.LD.hit_latency_hist::max_bucket         1279                      
system.ruby.LD.hit_latency_hist::samples    145355762                      
system.ruby.LD.hit_latency_hist::mean        1.275912                      
system.ruby.LD.hit_latency_hist::gmean       1.054580                      
system.ruby.LD.hit_latency_hist::stdev       2.525516                      
system.ruby.LD.hit_latency_hist          |   145354269    100.00%    100.00% |        1072      0.00%    100.00% |         137      0.00%    100.00% |         158      0.00%    100.00% |          86      0.00%    100.00% |          38      0.00%    100.00% |           0      0.00%    100.00% |           0      0.00%    100.00% |           2      0.00%    100.00% |           0      0.00%    100.00%
system.ruby.LD.hit_latency_hist::total      145355762                      
system.ruby.ST.latency_hist::bucket_size          128                      
system.ruby.ST.latency_hist::max_bucket          1279                      
system.ruby.ST.latency_hist::samples         69366824                      
system.ruby.ST.latency_hist::mean            1.504560                      
system.ruby.ST.latency_hist::gmean           1.018556                      
system.ruby.ST.latency_hist::stdev           9.499626                      
system.ruby.ST.latency_hist              |    69320645     99.93%     99.93% |       37697      0.05%     99.99% |         984      0.00%     99.99% |        1262      0.00%     99.99% |        5764      0.01%    100.00% |         472      0.00%    100.00% |           0      0.00%    100.00% |           0      0.00%    100.00% |           0      0.00%    100.00% |           0      0.00%    100.00%
system.ruby.ST.latency_hist::total           69366824                      
system.ruby.ST.hit_latency_hist::bucket_size          128                      
system.ruby.ST.hit_latency_hist::max_bucket         1279                      
system.ruby.ST.hit_latency_hist::samples     69366824                      
system.ruby.ST.hit_latency_hist::mean        1.504560                      
system.ruby.ST.hit_latency_hist::gmean       1.018556                      
system.ruby.ST.hit_latency_hist::stdev       9.499626                      
system.ruby.ST.hit_latency_hist          |    69320645     99.93%     99.93% |       37697      0.05%     99.99% |         984      0.00%     99.99% |        1262      0.00%     99.99% |        5764      0.01%    100.00% |         472      0.00%    100.00% |           0      0.00%    100.00% |           0      0.00%    100.00% |           0      0.00%    100.00% |           0      0.00%    100.00%
system.ruby.ST.hit_latency_hist::total       69366824                      
system.ruby.IFETCH.latency_hist::bucket_size          128                      
system.ruby.IFETCH.latency_hist::max_bucket         1279                      
system.ruby.IFETCH.latency_hist::samples    541943022                      
system.ruby.IFETCH.latency_hist::mean        1.000520                      
system.ruby.IFETCH.latency_hist::gmean       1.000034                      
system.ruby.IFETCH.latency_hist::stdev       0.256468                      
system.ruby.IFETCH.latency_hist          |   541942635    100.00%    100.00% |         333      0.00%    100.00% |          28      0.00%    100.00% |          12      0.00%    100.00% |          11      0.00%    100.00% |           3      0.00%    100.00% |           0      0.00%    100.00% |           0      0.00%    100.00% |           0      0.00%    100.00% |           0      0.00%    100.00%
system.ruby.IFETCH.latency_hist::total      541943022                      
[...]
system.ruby.L0Cache_Controller.S.Ifetch::total         1544                      
system.ruby.L0Cache_Controller.S.Store   |          22      0.58%      0.58% |        3803     99.42%    100.00%
system.ruby.L0Cache_Controller.S.Store::total         3825                      
system.ruby.L0Cache_Controller.S.Inv     |           9      2.63%      2.63% |         333     97.37%    100.00%
system.ruby.L0Cache_Controller.S.Inv::total          342                      
system.ruby.L0Cache_Controller.S.L0_Replacement |          10      0.09%      0.09% |       11138     99.91%    100.00%
system.ruby.L0Cache_Controller.S.L0_Replacement::total        11148                      
system.ruby.L0Cache_Controller.E.Load    |     5852183     15.54%     15.54% |    31800687     84.46%    100.00%
system.ruby.L0Cache_Controller.E.Load::total     37652870                      
system.ruby.L0Cache_Controller.E.Ifetch  |   393478323     72.61%     72.61% |   148457631     27.39%    100.00%
system.ruby.L0Cache_Controller.E.Ifetch::total    541935954                      
system.ruby.L0Cache_Controller.E.Store   |        6608      0.54%      0.54% |     1224541     99.46%    100.00%
system.ruby.L0Cache_Controller.E.Store::total      1231149                      
system.ruby.L0Cache_Controller.E.Inv     |        1431     11.21%     11.21% |       11336     88.79%    100.00%
system.ruby.L0Cache_Controller.E.Inv::total        12767                      
system.ruby.L0Cache_Controller.E.L0_Replacement |        2740      0.12%      0.12% |     2199720     99.88%    100.00%
system.ruby.L0Cache_Controller.E.L0_Replacement::total      2202460                      
system.ruby.L0Cache_Controller.M.Load    |    61672659     79.86%     79.86% |    15548971     20.14%    100.00%
system.ruby.L0Cache_Controller.M.Load::total     77221630                      
system.ruby.L0Cache_Controller.M.Store   |    62700818     78.69%     78.69% |    16976331     21.31%    100.00%
system.ruby.L0Cache_Controller.M.Store::total     79677149                      
system.ruby.L0Cache_Controller.M.Inv     |         824     15.22%     15.22% |        4591     84.78%    100.00%
system.ruby.L0Cache_Controller.M.Inv::total         5415                      
system.ruby.L0Cache_Controller.M.L0_Replacement |      266019     17.79%     17.79% |     1228925     82.21%    100.00%
system.ruby.L0Cache_Controller.M.L0_Replacement::total      1494944                      
system.ruby.L0Cache_Controller.IS.Data   |          45      0.29%      0.29% |       15278     99.71%    100.00%
system.ruby.L0Cache_Controller.IS.Data::total        15323                      
system.ruby.L0Cache_Controller.IS.Data_Exclusive |       11255      0.33%      0.33% |     3435896     99.67%    100.00%
system.ruby.L0Cache_Controller.IS.Data_Exclusive::total      3447151                      
system.ruby.L0Cache_Controller.IM.Data_Exclusive |      260331     97.97%     97.97% |        5394      2.03%    100.00%
system.ruby.L0Cache_Controller.IM.Data_Exclusive::total       265725                      
system.ruby.L0Cache_Controller.SM.Data_Exclusive |          22      0.58%      0.58% |        3803     99.42%    100.00%
system.ruby.L0Cache_Controller.SM.Data_Exclusive::total         3825                      
system.ruby.L1Cache_Controller.Load      |       11300      0.33%      0.33% |     3451174     99.67%    100.00%
system.ruby.L1Cache_Controller.Load::total      3462474                      
system.ruby.L1Cache_Controller.Store     |      260353     96.59%     96.59% |        9197      3.41%    100.00%
system.ruby.L1Cache_Controller.Store::total       269550                      
system.ruby.L1Cache_Controller.WriteBack |      268759      7.27%      7.27% |     3428645     92.73%    100.00%
system.ruby.L1Cache_Controller.WriteBack::total      3697404                      
system.ruby.L1Cache_Controller.L0_DataAck |         824     15.22%     15.22% |        4591     84.78%    100.00%
system.ruby.L1Cache_Controller.L0_DataAck::total         5415                      
system.ruby.L1Cache_Controller.Inv       |        4198     99.43%     99.43% |          24      0.57%    100.00%
system.ruby.L1Cache_Controller.Inv::total         4222                      
system.ruby.L1Cache_Controller.L0_Invalidate_Own |        2910      5.67%      5.67% |       48428     94.33%    100.00%
system.ruby.L1Cache_Controller.L0_Invalidate_Own::total        51338                      
system.ruby.L1Cache_Controller.L0_Invalidate_Else |        1618     97.12%     97.12% |          48      2.88%    100.00%
system.ruby.L1Cache_Controller.L0_Invalidate_Else::total         1666                      
system.ruby.L1Cache_Controller.L1_Replacement |      252356     15.06%     15.06% |     1423118     84.94%    100.00%
system.ruby.L1Cache_Controller.L1_Replacement::total      1675474                      
system.ruby.L1Cache_Controller.Fwd_GETX  |           7    100.00%    100.00% |           0      0.00%    100.00%
system.ruby.L1Cache_Controller.Fwd_GETX::total            7                      
system.ruby.L1Cache_Controller.Fwd_GETS  |        3950     99.52%     99.52% |          19      0.48%    100.00%
system.ruby.L1Cache_Controller.Fwd_GETS::total         3969                      
system.ruby.L1Cache_Controller.Data      |           0      0.00%      0.00% |           4    100.00%    100.00%
system.ruby.L1Cache_Controller.Data::total            4                      
system.ruby.L1Cache_Controller.Data_Exclusive |        2976      0.21%      0.21% |     1410642     99.79%    100.00%
system.ruby.L1Cache_Controller.Data_Exclusive::total      1413618                      
system.ruby.L1Cache_Controller.DataS_fromL1 |          19      0.48%      0.48% |        3950     99.52%    100.00%
system.ruby.L1Cache_Controller.DataS_fromL1::total         3969                      
system.ruby.L1Cache_Controller.Data_all_Acks |      253926     95.27%     95.27% |       12620      4.73%    100.00%
system.ruby.L1Cache_Controller.Data_all_Acks::total       266546                      
system.ruby.L1Cache_Controller.L0_Ack    |        1440      6.83%      6.83% |       19647     93.17%    100.00%
system.ruby.L1Cache_Controller.L0_Ack::total        21087                      
system.ruby.L1Cache_Controller.Ack       |          22      0.57%      0.57% |        3805     99.43%    100.00%
system.ruby.L1Cache_Controller.Ack::total         3827                      
system.ruby.L1Cache_Controller.Ack_all   |          22      0.57%      0.57% |        3809     99.43%    100.00%
system.ruby.L1Cache_Controller.Ack_all::total         3831                      
system.ruby.L1Cache_Controller.WB_Ack    |      251866     15.11%     15.11% |     1414809     84.89%    100.00%
system.ruby.L1Cache_Controller.WB_Ack::total      1666675                      
system.ruby.L1Cache_Controller.NP.Load   |        2988      0.21%      0.21% |     1422884     99.79%    100.00%
system.ruby.L1Cache_Controller.NP.Load::total      1425872                      
system.ruby.L1Cache_Controller.NP.Store  |      253926     98.32%     98.32% |        4332      1.68%    100.00%
system.ruby.L1Cache_Controller.NP.Store::total       258258                      
system.ruby.L1Cache_Controller.NP.Inv    |         490     98.59%     98.59% |           7      1.41%    100.00%
system.ruby.L1Cache_Controller.NP.Inv::total          497                      
system.ruby.L1Cache_Controller.I.Load    |           7    100.00%    100.00% |           0      0.00%    100.00%
system.ruby.L1Cache_Controller.I.Load::total            7                      
system.ruby.L1Cache_Controller.S.Load    |           4      0.13%      0.13% |        3034     99.87%    100.00%
system.ruby.L1Cache_Controller.S.Load::total         3038                      
system.ruby.L1Cache_Controller.S.Store   |          22      0.57%      0.57% |        3805     99.43%    100.00%
system.ruby.L1Cache_Controller.S.Store::total         3827                      
system.ruby.L1Cache_Controller.S.L0_Invalidate_Own |           0      0.00%      0.00% |        8303    100.00%    100.00%
system.ruby.L1Cache_Controller.S.L0_Invalidate_Own::total         8303                      
system.ruby.L1Cache_Controller.S.L0_Invalidate_Else |           9     52.94%     52.94% |           8     47.06%    100.00%
system.ruby.L1Cache_Controller.S.L0_Invalidate_Else::total           17                      
system.ruby.L1Cache_Controller.SS.Load   |          22     91.67%     91.67% |           2      8.33%    100.00%
system.ruby.L1Cache_Controller.SS.Load::total           24                      
system.ruby.L1Cache_Controller.SS.Inv    |        3321     99.49%     99.49% |          17      0.51%    100.00%
system.ruby.L1Cache_Controller.SS.Inv::total         3338                      
system.ruby.L1Cache_Controller.SS.L1_Replacement |         490      5.57%      5.57% |        8309     94.43%    100.00%
system.ruby.L1Cache_Controller.SS.L1_Replacement::total         8799                      
system.ruby.L1Cache_Controller.E.WriteBack |        1086      0.08%      0.08% |     1396977     99.92%    100.00%
system.ruby.L1Cache_Controller.E.WriteBack::total      1398063                      
system.ruby.L1Cache_Controller.E.L0_Invalidate_Own |        1231      8.28%      8.28% |       13645     91.72%    100.00%
system.ruby.L1Cache_Controller.E.L0_Invalidate_Own::total        14876                      
system.ruby.L1Cache_Controller.E.L0_Invalidate_Else |         219     99.10%     99.10% |           2      0.90%    100.00%
system.ruby.L1Cache_Controller.E.L0_Invalidate_Else::total          221                      
system.ruby.L1Cache_Controller.EE.Inv    |         201    100.00%    100.00% |           0      0.00%    100.00%
system.ruby.L1Cache_Controller.EE.Inv::total          201                      
system.ruby.L1Cache_Controller.EE.L1_Replacement |        1107     10.14%     10.14% |        9813     89.86%    100.00%
system.ruby.L1Cache_Controller.EE.L1_Replacement::total        10920                      
system.ruby.L1Cache_Controller.EE.Fwd_GETS |          13     86.67%     86.67% |           2     13.33%    100.00%
system.ruby.L1Cache_Controller.EE.Fwd_GETS::total           15                      
system.ruby.L1Cache_Controller.M.WriteBack |      267673     11.64%     11.64% |     2031668     88.36%    100.00%
system.ruby.L1Cache_Controller.M.WriteBack::total      2299341                      
system.ruby.L1Cache_Controller.M.L0_Invalidate_Own |         224      9.00%      9.00% |        2266     91.00%    100.00%
system.ruby.L1Cache_Controller.M.L0_Invalidate_Own::total         2490                      
system.ruby.L1Cache_Controller.M.L0_Invalidate_Else |         581     97.65%     97.65% |          14      2.35%    100.00%
system.ruby.L1Cache_Controller.M.L0_Invalidate_Else::total          595                      
system.ruby.L1Cache_Controller.MM.Load   |        8279      0.41%      0.41% |     2025254     99.59%    100.00%
system.ruby.L1Cache_Controller.MM.Load::total      2033533                      
system.ruby.L1Cache_Controller.MM.Store  |        6405     85.80%     85.80% |        1060     14.20%    100.00%
system.ruby.L1Cache_Controller.MM.Store::total         7465                      
system.ruby.L1Cache_Controller.MM.Inv    |         186    100.00%    100.00% |           0      0.00%    100.00%
system.ruby.L1Cache_Controller.MM.Inv::total          186                      
system.ruby.L1Cache_Controller.MM.L1_Replacement |      250759     15.14%     15.14% |     1404996     84.86%    100.00%
system.ruby.L1Cache_Controller.MM.L1_Replacement::total      1655755                      
system.ruby.L1Cache_Controller.MM.Fwd_GETX |           7    100.00%    100.00% |           0      0.00%    100.00%
system.ruby.L1Cache_Controller.MM.Fwd_GETX::total            7                      
system.ruby.L1Cache_Controller.MM.Fwd_GETS |        3937     99.57%     99.57% |          17      0.43%    100.00%
system.ruby.L1Cache_Controller.MM.Fwd_GETS::total         3954                      
system.ruby.L1Cache_Controller.IS.Data_Exclusive |        2976      0.21%      0.21% |     1410642     99.79%    100.00%
system.ruby.L1Cache_Controller.IS.Data_Exclusive::total      1413618                      
system.ruby.L1Cache_Controller.IS.DataS_fromL1 |          19      0.48%      0.48% |        3950     99.52%    100.00%
system.ruby.L1Cache_Controller.IS.DataS_fromL1::total         3969                      
system.ruby.L1Cache_Controller.IS.Data_all_Acks |           0      0.00%      0.00% |        8292    100.00%    100.00%
system.ruby.L1Cache_Controller.IS.Data_all_Acks::total         8292                      
system.ruby.L1Cache_Controller.IM.Data   |           0      0.00%      0.00% |           4    100.00%    100.00%
system.ruby.L1Cache_Controller.IM.Data::total            4                      
system.ruby.L1Cache_Controller.IM.Data_all_Acks |      253926     98.32%     98.32% |        4328      1.68%    100.00%
system.ruby.L1Cache_Controller.IM.Data_all_Acks::total       258254                      
system.ruby.L1Cache_Controller.SM.Ack    |          22      0.57%      0.57% |        3805     99.43%    100.00%
system.ruby.L1Cache_Controller.SM.Ack::total         3827                      
system.ruby.L1Cache_Controller.SM.Ack_all |          22      0.57%      0.57% |        3809     99.43%    100.00%
system.ruby.L1Cache_Controller.SM.Ack_all::total         3831                      
system.ruby.L1Cache_Controller.M_I.WB_Ack |      251866     15.11%     15.11% |     1414809     84.89%    100.00%
system.ruby.L1Cache_Controller.M_I.WB_Ack::total      1666675                      
system.ruby.L1Cache_Controller.S_IL0.L0_Invalidate_Own |           0      0.00%      0.00% |        8303    100.00%    100.00%
system.ruby.L1Cache_Controller.S_IL0.L0_Invalidate_Own::total         8303                      
system.ruby.L1Cache_Controller.S_IL0.L0_Invalidate_Else |           9     52.94%     52.94% |           8     47.06%    100.00%
system.ruby.L1Cache_Controller.S_IL0.L0_Invalidate_Else::total           17                      
system.ruby.L1Cache_Controller.S_IL0.L0_Ack |           9      0.11%      0.11% |        8311     99.89%    100.00%
system.ruby.L1Cache_Controller.S_IL0.L0_Ack::total         8320                      
system.ruby.L1Cache_Controller.E_IL0.L0_DataAck |         129      3.26%      3.26% |        3832     96.74%    100.00%
system.ruby.L1Cache_Controller.E_IL0.L0_DataAck::total         3961                      
system.ruby.L1Cache_Controller.E_IL0.L0_Invalidate_Own |        1231      8.28%      8.28% |       13645     91.72%    100.00%
system.ruby.L1Cache_Controller.E_IL0.L0_Invalidate_Own::total        14876                      
system.ruby.L1Cache_Controller.E_IL0.L0_Invalidate_Else |         219     99.10%     99.10% |           2      0.90%    100.00%
system.ruby.L1Cache_Controller.E_IL0.L0_Invalidate_Else::total          221                      
system.ruby.L1Cache_Controller.E_IL0.L0_Ack |        1321     11.86%     11.86% |        9815     88.14%    100.00%
system.ruby.L1Cache_Controller.E_IL0.L0_Ack::total        11136                      
system.ruby.L1Cache_Controller.M_IL0.L0_DataAck |         695     47.80%     47.80% |         759     52.20%    100.00%
system.ruby.L1Cache_Controller.M_IL0.L0_DataAck::total         1454                      
system.ruby.L1Cache_Controller.M_IL0.L0_Invalidate_Own |         224      9.00%      9.00% |        2266     91.00%    100.00%
system.ruby.L1Cache_Controller.M_IL0.L0_Invalidate_Own::total         2490                      
system.ruby.L1Cache_Controller.M_IL0.L0_Invalidate_Else |         581     97.65%     97.65% |          14      2.35%    100.00%
system.ruby.L1Cache_Controller.M_IL0.L0_Invalidate_Else::total          595                      
system.ruby.L1Cache_Controller.M_IL0.L0_Ack |         110      6.74%      6.74% |        1521     93.26%    100.00%
system.ruby.L1Cache_Controller.M_IL0.L0_Ack::total         1631                      
system.ruby.L2Cache_Controller.L1_GETS        1425883      0.00%      0.00%
system.ruby.L2Cache_Controller.L1_GETX         258258      0.00%      0.00%
system.ruby.L2Cache_Controller.L1_UPGRADE         3827      0.00%      0.00%
system.ruby.L2Cache_Controller.L1_PUTX        1666675      0.00%      0.00%
system.ruby.L2Cache_Controller.L2_Replacement         5262      0.00%      0.00%
system.ruby.L2Cache_Controller.L2_Replacement_clean          757      0.00%      0.00%
system.ruby.L2Cache_Controller.Mem_Data        267486      0.00%      0.00%
system.ruby.L2Cache_Controller.Mem_Ack           6019      0.00%      0.00%
system.ruby.L2Cache_Controller.WB_Data           4076      0.00%      0.00%
system.ruby.L2Cache_Controller.WB_Data_clean           79      0.00%      0.00%
system.ruby.L2Cache_Controller.Ack                  2      0.00%      0.00%
system.ruby.L2Cache_Controller.Ack_all            203      0.00%      0.00%
system.ruby.L2Cache_Controller.Unblock           3969      0.00%      0.00%
system.ruby.L2Cache_Controller.Exclusive_Unblock      1675703      0.00%      0.00%
system.ruby.L2Cache_Controller.NP.L1_GETS        11583      0.00%      0.00%
system.ruby.L2Cache_Controller.NP.L1_GETX       255903      0.00%      0.00%
system.ruby.L2Cache_Controller.SS.L1_GETS         8292      0.00%      0.00%
system.ruby.L2Cache_Controller.SS.L1_GETX            4      0.00%      0.00%
system.ruby.L2Cache_Controller.SS.L1_UPGRADE         3827      0.00%      0.00%
system.ruby.L2Cache_Controller.SS.L2_Replacement            2      0.00%      0.00%
system.ruby.L2Cache_Controller.M.L1_GETS      1402035      0.00%      0.00%
system.ruby.L2Cache_Controller.M.L1_GETX         2344      0.00%      0.00%
system.ruby.L2Cache_Controller.M.L2_Replacement         5149      0.00%      0.00%
system.ruby.L2Cache_Controller.M.L2_Replacement_clean          481      0.00%      0.00%
system.ruby.L2Cache_Controller.MT.L1_GETS         3969      0.00%      0.00%
system.ruby.L2Cache_Controller.MT.L1_GETX            7      0.00%      0.00%
system.ruby.L2Cache_Controller.MT.L1_PUTX      1666675      0.00%      0.00%
system.ruby.L2Cache_Controller.MT.L2_Replacement          111      0.00%      0.00%
system.ruby.L2Cache_Controller.MT.L2_Replacement_clean          276      0.00%      0.00%
system.ruby.L2Cache_Controller.M_I.L1_GETS            2      0.00%      0.00%
system.ruby.L2Cache_Controller.M_I.Mem_Ack         6019      0.00%      0.00%
system.ruby.L2Cache_Controller.MT_I.WB_Data           33      0.00%      0.00%
system.ruby.L2Cache_Controller.MT_I.WB_Data_clean           28      0.00%      0.00%
system.ruby.L2Cache_Controller.MT_I.Ack_all           50      0.00%      0.00%
system.ruby.L2Cache_Controller.MCT_I.WB_Data           75      0.00%      0.00%
system.ruby.L2Cache_Controller.MCT_I.WB_Data_clean           50      0.00%      0.00%
system.ruby.L2Cache_Controller.MCT_I.Ack_all          151      0.00%      0.00%
system.ruby.L2Cache_Controller.S_I.Ack              2      0.00%      0.00%
system.ruby.L2Cache_Controller.S_I.Ack_all            2      0.00%      0.00%
system.ruby.L2Cache_Controller.ISS.Mem_Data        11583      0.00%      0.00%
system.ruby.L2Cache_Controller.IM.Mem_Data       255903      0.00%      0.00%
system.ruby.L2Cache_Controller.SS_MB.L1_GETS            2      0.00%      0.00%
system.ruby.L2Cache_Controller.SS_MB.Exclusive_Unblock         3831      0.00%      0.00%
system.ruby.L2Cache_Controller.MT_MB.Exclusive_Unblock      1671872      0.00%      0.00%
system.ruby.L2Cache_Controller.MT_IIB.WB_Data         3968      0.00%      0.00%
system.ruby.L2Cache_Controller.MT_IIB.WB_Data_clean            1      0.00%      0.00%
system.ruby.L2Cache_Controller.MT_SB.Unblock         3969      0.00%      0.00%

---------- End Simulation Statistics   ----------
