
---------- Begin Simulation Statistics ----------
sim_seconds                                  3.031840                       # Number of seconds simulated
sim_ticks                                3031840252500                       # Number of ticks simulated
final_tick                               3031840252500                       # Number of ticks from beginning of simulation (restored from checkpoints and never reset)
sim_freq                                 1000000000000                       # Frequency of simulated ticks
host_inst_rate                                 140401                       # Simulator instruction rate (inst/s)
host_op_rate                                   394180                       # Simulator op (including micro ops) rate (op/s)
host_tick_rate                              235472295                       # Simulator tick rate (ticks/s)
host_mem_usage                                1270012                       # Number of bytes of host memory used
host_seconds                                 12875.57                       # Real time elapsed on the host
sim_insts                                  1807738097                       # Number of instructions simulated
sim_ops                                    5075291288                       # Number of ops (including micro ops) simulated
system.voltage_domain.voltage                       1                       # Voltage in Volts
system.clk_domain.clock                          1000                       # Clock period in ticks
system.mem_ctrls.bytes_read::ruby.dir_cntrl0    111206336                       # Number of bytes read from this memory
system.mem_ctrls.bytes_read::total          111206336                       # Number of bytes read from this memory
system.mem_ctrls.bytes_written::ruby.dir_cntrl0     41822848                       # Number of bytes written to this memory
system.mem_ctrls.bytes_written::total        41822848                       # Number of bytes written to this memory
system.mem_ctrls.num_reads::ruby.dir_cntrl0      1737599                       # Number of read requests responded to by this memory
system.mem_ctrls.num_reads::total             1737599                       # Number of read requests responded to by this memory
system.mem_ctrls.num_writes::ruby.dir_cntrl0       653482                       # Number of write requests responded to by this memory
system.mem_ctrls.num_writes::total             653482                       # Number of write requests responded to by this memory
system.mem_ctrls.bw_read::ruby.dir_cntrl0     36679484                       # Total read bandwidth from this memory (bytes/s)
system.mem_ctrls.bw_read::total              36679484                       # Total read bandwidth from this memory (bytes/s)
system.mem_ctrls.bw_write::ruby.dir_cntrl0     13794542                       # Write bandwidth from this memory (bytes/s)
system.mem_ctrls.bw_write::total             13794542                       # Write bandwidth from this memory (bytes/s)
system.mem_ctrls.bw_total::ruby.dir_cntrl0     50474026                       # Total bandwidth to/from this memory (bytes/s)
system.mem_ctrls.bw_total::total             50474026                       # Total bandwidth to/from this memory (bytes/s)
system.mem_ctrls.readReqs                     1737599                       # Number of read requests accepted
system.mem_ctrls.writeReqs                     653482                       # Number of write requests accepted
system.mem_ctrls.readBursts                   1737599                       # Number of DRAM read bursts, including those serviced by the write queue
system.mem_ctrls.writeBursts                   653482                       # Number of DRAM write bursts, including those merged in the write queue
system.mem_ctrls.bytesReadDRAM              111186112                       # Total number of bytes read from DRAM
system.mem_ctrls.bytesReadWrQ                   20224                       # Total number of bytes read from write queue
system.mem_ctrls.bytesWritten                41820864                       # Total number of bytes written to DRAM
system.mem_ctrls.bytesReadSys               111206336                       # Total read bytes from the system interface side
system.mem_ctrls.bytesWrittenSys             41822848                       # Total written bytes from the system interface side
system.mem_ctrls.servicedByWrQ                    316                       # Number of DRAM read bursts serviced by the write queue
system.mem_ctrls.mergedWrBursts                     0                       # Number of DRAM write bursts merged with an existing one
system.mem_ctrls.neitherReadNorWriteReqs            0                       # Number of requests that are neither read nor write
system.mem_ctrls.perBankRdBursts::0            108606                       # Per bank write bursts
system.mem_ctrls.perBankRdBursts::1            107703                       # Per bank write bursts
system.mem_ctrls.perBankRdBursts::2            108296                       # Per bank write bursts
system.mem_ctrls.perBankRdBursts::3            108372                       # Per bank write bursts
system.mem_ctrls.perBankRdBursts::4            108410                       # Per bank write bursts
system.mem_ctrls.perBankRdBursts::5            107997                       # Per bank write bursts
system.mem_ctrls.perBankRdBursts::6            109050                       # Per bank write bursts
system.mem_ctrls.perBankRdBursts::7            109105                       # Per bank write bursts
system.mem_ctrls.perBankRdBursts::8            108429                       # Per bank write bursts
system.mem_ctrls.perBankRdBursts::9            108733                       # Per bank write bursts
system.mem_ctrls.perBankRdBursts::10           108900                       # Per bank write bursts
system.mem_ctrls.perBankRdBursts::11           108810                       # Per bank write bursts
system.mem_ctrls.perBankRdBursts::12           108838                       # Per bank write bursts
system.mem_ctrls.perBankRdBursts::13           108869                       # Per bank write bursts
system.mem_ctrls.perBankRdBursts::14           108241                       # Per bank write bursts
system.mem_ctrls.perBankRdBursts::15           108924                       # Per bank write bursts
system.mem_ctrls.perBankWrBursts::0             41785                       # Per bank write bursts
system.mem_ctrls.perBankWrBursts::1             40915                       # Per bank write bursts
system.mem_ctrls.perBankWrBursts::2             41373                       # Per bank write bursts
system.mem_ctrls.perBankWrBursts::3             40758                       # Per bank write bursts
system.mem_ctrls.perBankWrBursts::4             40538                       # Per bank write bursts
system.mem_ctrls.perBankWrBursts::5             40183                       # Per bank write bursts
system.mem_ctrls.perBankWrBursts::6             40164                       # Per bank write bursts
system.mem_ctrls.perBankWrBursts::7             40250                       # Per bank write bursts
system.mem_ctrls.perBankWrBursts::8             40332                       # Per bank write bursts
system.mem_ctrls.perBankWrBursts::9             41279                       # Per bank write bursts
system.mem_ctrls.perBankWrBursts::10            41165                       # Per bank write bursts
system.mem_ctrls.perBankWrBursts::11            41216                       # Per bank write bursts
system.mem_ctrls.perBankWrBursts::12            40696                       # Per bank write bursts
system.mem_ctrls.perBankWrBursts::13            40975                       # Per bank write bursts
system.mem_ctrls.perBankWrBursts::14            40638                       # Per bank write bursts
system.mem_ctrls.perBankWrBursts::15            41184                       # Per bank write bursts
system.mem_ctrls.numRdRetry                         0                       # Number of times read queue was full causing retry
system.mem_ctrls.numWrRetry                         0                       # Number of times write queue was full causing retry
system.mem_ctrls.totGap                  3031840158000                       # Total gap between requests
system.mem_ctrls.readPktSize::0                     0                       # Read request sizes (log2)
system.mem_ctrls.readPktSize::1                     0                       # Read request sizes (log2)
system.mem_ctrls.readPktSize::2                     0                       # Read request sizes (log2)
system.mem_ctrls.readPktSize::3                     0                       # Read request sizes (log2)
system.mem_ctrls.readPktSize::4                     0                       # Read request sizes (log2)
system.mem_ctrls.readPktSize::5                     0                       # Read request sizes (log2)
system.mem_ctrls.readPktSize::6               1737599                       # Read request sizes (log2)
system.mem_ctrls.writePktSize::0                    0                       # Write request sizes (log2)
system.mem_ctrls.writePktSize::1                    0                       # Write request sizes (log2)
system.mem_ctrls.writePktSize::2                    0                       # Write request sizes (log2)
system.mem_ctrls.writePktSize::3                    0                       # Write request sizes (log2)
system.mem_ctrls.writePktSize::4                    0                       # Write request sizes (log2)
system.mem_ctrls.writePktSize::5                    0                       # Write request sizes (log2)
system.mem_ctrls.writePktSize::6               653482                       # Write request sizes (log2)
system.mem_ctrls.rdQLenPdf::0                 1537924                       # What read queue length does an incoming req see
system.mem_ctrls.rdQLenPdf::1                   76708                       # What read queue length does an incoming req see
system.mem_ctrls.rdQLenPdf::2                   56440                       # What read queue length does an incoming req see
system.mem_ctrls.rdQLenPdf::3                   32475                       # What read queue length does an incoming req see
system.mem_ctrls.rdQLenPdf::4                   15346                       # What read queue length does an incoming req see
system.mem_ctrls.rdQLenPdf::5                    9311                       # What read queue length does an incoming req see
system.mem_ctrls.rdQLenPdf::6                    5403                       # What read queue length does an incoming req see
system.mem_ctrls.rdQLenPdf::7                    3676                       # What read queue length does an incoming req see
system.mem_ctrls.rdQLenPdf::8                       0                       # What read queue length does an incoming req see
system.mem_ctrls.rdQLenPdf::9                       0                       # What read queue length does an incoming req see
system.mem_ctrls.rdQLenPdf::10                      0                       # What read queue length does an incoming req see
system.mem_ctrls.rdQLenPdf::11                      0                       # What read queue length does an incoming req see
system.mem_ctrls.rdQLenPdf::12                      0                       # What read queue length does an incoming req see
system.mem_ctrls.rdQLenPdf::13                      0                       # What read queue length does an incoming req see
system.mem_ctrls.rdQLenPdf::14                      0                       # What read queue length does an incoming req see
system.mem_ctrls.rdQLenPdf::15                      0                       # What read queue length does an incoming req see
system.mem_ctrls.rdQLenPdf::16                      0                       # What read queue length does an incoming req see
system.mem_ctrls.rdQLenPdf::17                      0                       # What read queue length does an incoming req see
system.mem_ctrls.rdQLenPdf::18                      0                       # What read queue length does an incoming req see
system.mem_ctrls.rdQLenPdf::19                      0                       # What read queue length does an incoming req see
system.mem_ctrls.rdQLenPdf::20                      0                       # What read queue length does an incoming req see
system.mem_ctrls.rdQLenPdf::21                      0                       # What read queue length does an incoming req see
system.mem_ctrls.rdQLenPdf::22                      0                       # What read queue length does an incoming req see
system.mem_ctrls.rdQLenPdf::23                      0                       # What read queue length does an incoming req see
system.mem_ctrls.rdQLenPdf::24                      0                       # What read queue length does an incoming req see
system.mem_ctrls.rdQLenPdf::25                      0                       # What read queue length does an incoming req see
system.mem_ctrls.rdQLenPdf::26                      0                       # What read queue length does an incoming req see
system.mem_ctrls.rdQLenPdf::27                      0                       # What read queue length does an incoming req see
system.mem_ctrls.rdQLenPdf::28                      0                       # What read queue length does an incoming req see
system.mem_ctrls.rdQLenPdf::29                      0                       # What read queue length does an incoming req see
system.mem_ctrls.rdQLenPdf::30                      0                       # What read queue length does an incoming req see
system.mem_ctrls.rdQLenPdf::31                      0                       # What read queue length does an incoming req see
system.mem_ctrls.wrQLenPdf::0                       1                       # What write queue length does an incoming req see
system.mem_ctrls.wrQLenPdf::1                       1                       # What write queue length does an incoming req see
system.mem_ctrls.wrQLenPdf::2                       1                       # What write queue length does an incoming req see
system.mem_ctrls.wrQLenPdf::3                       1                       # What write queue length does an incoming req see
system.mem_ctrls.wrQLenPdf::4                       1                       # What write queue length does an incoming req see
system.mem_ctrls.wrQLenPdf::5                       1                       # What write queue length does an incoming req see
system.mem_ctrls.wrQLenPdf::6                       1                       # What write queue length does an incoming req see
system.mem_ctrls.wrQLenPdf::7                       1                       # What write queue length does an incoming req see
system.mem_ctrls.wrQLenPdf::8                       1                       # What write queue length does an incoming req see
system.mem_ctrls.wrQLenPdf::9                       1                       # What write queue length does an incoming req see
system.mem_ctrls.wrQLenPdf::10                      1                       # What write queue length does an incoming req see
system.mem_ctrls.wrQLenPdf::11                      1                       # What write queue length does an incoming req see
system.mem_ctrls.wrQLenPdf::12                      1                       # What write queue length does an incoming req see
system.mem_ctrls.wrQLenPdf::13                      1                       # What write queue length does an incoming req see
system.mem_ctrls.wrQLenPdf::14                      1                       # What write queue length does an incoming req see
system.mem_ctrls.wrQLenPdf::15                   1903                       # What write queue length does an incoming req see
system.mem_ctrls.wrQLenPdf::16                   2019                       # What write queue length does an incoming req see
system.mem_ctrls.wrQLenPdf::17                  36584                       # What write queue length does an incoming req see
system.mem_ctrls.wrQLenPdf::18                  37564                       # What write queue length does an incoming req see
system.mem_ctrls.wrQLenPdf::19                  38229                       # What write queue length does an incoming req see
system.mem_ctrls.wrQLenPdf::20                  38856                       # What write queue length does an incoming req see
system.mem_ctrls.wrQLenPdf::21                  39552                       # What write queue length does an incoming req see
system.mem_ctrls.wrQLenPdf::22                  40457                       # What write queue length does an incoming req see
system.mem_ctrls.wrQLenPdf::23                  41186                       # What write queue length does an incoming req see
system.mem_ctrls.wrQLenPdf::24                  41632                       # What write queue length does an incoming req see
system.mem_ctrls.wrQLenPdf::25                  41812                       # What write queue length does an incoming req see
system.mem_ctrls.wrQLenPdf::26                  41822                       # What write queue length does an incoming req see
system.mem_ctrls.wrQLenPdf::27                  41806                       # What write queue length does an incoming req see
system.mem_ctrls.wrQLenPdf::28                  41859                       # What write queue length does an incoming req see
system.mem_ctrls.wrQLenPdf::29                  41887                       # What write queue length does an incoming req see
system.mem_ctrls.wrQLenPdf::30                  42105                       # What write queue length does an incoming req see
system.mem_ctrls.wrQLenPdf::31                  42069                       # What write queue length does an incoming req see
system.mem_ctrls.wrQLenPdf::32                  41605                       # What write queue length does an incoming req see
system.mem_ctrls.wrQLenPdf::33                    298                       # What write queue length does an incoming req see
system.mem_ctrls.wrQLenPdf::34                     88                       # What write queue length does an incoming req see
system.mem_ctrls.wrQLenPdf::35                     55                       # What write queue length does an incoming req see
system.mem_ctrls.wrQLenPdf::36                     36                       # What write queue length does an incoming req see
system.mem_ctrls.wrQLenPdf::37                     21                       # What write queue length does an incoming req see
system.mem_ctrls.wrQLenPdf::38                     16                       # What write queue length does an incoming req see
system.mem_ctrls.wrQLenPdf::39                      6                       # What write queue length does an incoming req see
system.mem_ctrls.wrQLenPdf::40                      0                       # What write queue length does an incoming req see
system.mem_ctrls.wrQLenPdf::41                      0                       # What write queue length does an incoming req see
system.mem_ctrls.wrQLenPdf::42                      0                       # What write queue length does an incoming req see
system.mem_ctrls.wrQLenPdf::43                      0                       # What write queue length does an incoming req see
system.mem_ctrls.wrQLenPdf::44                      0                       # What write queue length does an incoming req see
system.mem_ctrls.wrQLenPdf::45                      0                       # What write queue length does an incoming req see
system.mem_ctrls.wrQLenPdf::46                      0                       # What write queue length does an incoming req see
system.mem_ctrls.wrQLenPdf::47                      0                       # What write queue length does an incoming req see
system.mem_ctrls.wrQLenPdf::48                      0                       # What write queue length does an incoming req see
system.mem_ctrls.wrQLenPdf::49                      0                       # What write queue length does an incoming req see
system.mem_ctrls.wrQLenPdf::50                      0                       # What write queue length does an incoming req see
system.mem_ctrls.wrQLenPdf::51                      0                       # What write queue length does an incoming req see
system.mem_ctrls.wrQLenPdf::52                      0                       # What write queue length does an incoming req see
system.mem_ctrls.wrQLenPdf::53                      0                       # What write queue length does an incoming req see
system.mem_ctrls.wrQLenPdf::54                      0                       # What write queue length does an incoming req see
system.mem_ctrls.wrQLenPdf::55                      0                       # What write queue length does an incoming req see
system.mem_ctrls.wrQLenPdf::56                      0                       # What write queue length does an incoming req see
system.mem_ctrls.wrQLenPdf::57                      0                       # What write queue length does an incoming req see
system.mem_ctrls.wrQLenPdf::58                      0                       # What write queue length does an incoming req see
system.mem_ctrls.wrQLenPdf::59                      0                       # What write queue length does an incoming req see
system.mem_ctrls.wrQLenPdf::60                      0                       # What write queue length does an incoming req see
system.mem_ctrls.wrQLenPdf::61                      0                       # What write queue length does an incoming req see
system.mem_ctrls.wrQLenPdf::62                      0                       # What write queue length does an incoming req see
system.mem_ctrls.wrQLenPdf::63                      0                       # What write queue length does an incoming req see
system.mem_ctrls.bytesPerActivate::samples       664480                       # Bytes accessed per row activation
system.mem_ctrls.bytesPerActivate::mean    230.261305                       # Bytes accessed per row activation
system.mem_ctrls.bytesPerActivate::gmean   149.944033                       # Bytes accessed per row activation
system.mem_ctrls.bytesPerActivate::stdev   235.174418                       # Bytes accessed per row activation
system.mem_ctrls.bytesPerActivate::0-127       290235     43.68%     43.68% # Bytes accessed per row activation
system.mem_ctrls.bytesPerActivate::128-255       135641     20.41%     64.09% # Bytes accessed per row activation
system.mem_ctrls.bytesPerActivate::256-383       103356     15.55%     79.65% # Bytes accessed per row activation
system.mem_ctrls.bytesPerActivate::384-511        38663      5.82%     85.46% # Bytes accessed per row activation
system.mem_ctrls.bytesPerActivate::512-639        32524      4.89%     90.36% # Bytes accessed per row activation
system.mem_ctrls.bytesPerActivate::640-767        24589      3.70%     94.06% # Bytes accessed per row activation
system.mem_ctrls.bytesPerActivate::768-895        17068      2.57%     96.63% # Bytes accessed per row activation
system.mem_ctrls.bytesPerActivate::896-1023        10931      1.65%     98.27% # Bytes accessed per row activation
system.mem_ctrls.bytesPerActivate::1024-1151        11473      1.73%    100.00% # Bytes accessed per row activation
system.mem_ctrls.bytesPerActivate::total       664480                       # Bytes accessed per row activation
system.mem_ctrls.rdPerTurnAround::samples        40582                       # Reads before turning the bus around for writes
system.mem_ctrls.rdPerTurnAround::mean      42.784313                       # Reads before turning the bus around for writes
system.mem_ctrls.rdPerTurnAround::stdev   1668.822476                       # Reads before turning the bus around for writes
system.mem_ctrls.rdPerTurnAround::0-16383        40581    100.00%    100.00% # Reads before turning the bus around for writes
system.mem_ctrls.rdPerTurnAround::327680-344063            1      0.00%    100.00% # Reads before turning the bus around for writes
system.mem_ctrls.rdPerTurnAround::total         40582                       # Reads before turning the bus around for writes
system.mem_ctrls.wrPerTurnAround::samples        40582                       # Writes before turning the bus around for reads
system.mem_ctrls.wrPerTurnAround::mean      16.101991                       # Writes before turning the bus around for reads
system.mem_ctrls.wrPerTurnAround::gmean     16.096005                       # Writes before turning the bus around for reads
system.mem_ctrls.wrPerTurnAround::stdev      0.457796                       # Writes before turning the bus around for reads
system.mem_ctrls.wrPerTurnAround::16            38574     95.05%     95.05% # Writes before turning the bus around for reads
system.mem_ctrls.wrPerTurnAround::17               46      0.11%     95.17% # Writes before turning the bus around for reads
system.mem_ctrls.wrPerTurnAround::18             1841      4.54%     99.70% # Writes before turning the bus around for reads
system.mem_ctrls.wrPerTurnAround::19               97      0.24%     99.94% # Writes before turning the bus around for reads
system.mem_ctrls.wrPerTurnAround::20               10      0.02%     99.97% # Writes before turning the bus around for reads
system.mem_ctrls.wrPerTurnAround::21               10      0.02%     99.99% # Writes before turning the bus around for reads
system.mem_ctrls.wrPerTurnAround::22                1      0.00%     99.99% # Writes before turning the bus around for reads
system.mem_ctrls.wrPerTurnAround::23                2      0.00%    100.00% # Writes before turning the bus around for reads
system.mem_ctrls.wrPerTurnAround::26                1      0.00%    100.00% # Writes before turning the bus around for reads
system.mem_ctrls.wrPerTurnAround::total         40582                       # Writes before turning the bus around for reads
system.mem_ctrls.totQLat                  32211364632                       # Total ticks spent queuing
system.mem_ctrls.totMemAccLat             64785420882                       # Total ticks spent from burst creation until serviced by the DRAM
system.mem_ctrls.totBusLat                 8686415000                       # Total ticks spent in databus transfers
system.mem_ctrls.avgQLat                     18541.23                       # Average queueing delay per DRAM burst
system.mem_ctrls.avgBusLat                    5000.00                       # Average bus latency per DRAM burst
system.mem_ctrls.avgMemAccLat                37291.23                       # Average memory access latency per DRAM burst
system.mem_ctrls.avgRdBW                        36.67                       # Average DRAM read bandwidth in MiByte/s
system.mem_ctrls.avgWrBW                        13.79                       # Average achieved write bandwidth in MiByte/s
system.mem_ctrls.avgRdBWSys                     36.68                       # Average system read bandwidth in MiByte/s
system.mem_ctrls.avgWrBWSys                     13.79                       # Average system write bandwidth in MiByte/s
system.mem_ctrls.peakBW                      12800.00                       # Theoretical peak bandwidth in MiByte/s
system.mem_ctrls.busUtil                         0.39                       # Data bus utilization in percentage
system.mem_ctrls.busUtilRead                     0.29                       # Data bus utilization in percentage for reads
system.mem_ctrls.busUtilWrite                    0.11                       # Data bus utilization in percentage for writes
system.mem_ctrls.avgRdQLen                       1.01                       # Average read queue length when enqueuing
system.mem_ctrls.avgWrQLen                      21.86                       # Average write queue length when enqueuing
system.mem_ctrls.readRowHits                  1360233                       # Number of row buffer hits during reads
system.mem_ctrls.writeRowHits                  366009                       # Number of row buffer hits during writes
system.mem_ctrls.readRowHitRate                 78.30                       # Row buffer hit rate for reads
system.mem_ctrls.writeRowHitRate                56.01                       # Row buffer hit rate for writes
system.mem_ctrls.avgGap                    1267978.86                       # Average gap between requests
system.mem_ctrls.pageHitRate                    72.20                       # Row buffer hit rate, read and write combined
system.mem_ctrls_0.actEnergy               2509534440                       # Energy for activate commands per rank (pJ)
system.mem_ctrls_0.preEnergy               1369289625                       # Energy for precharge commands per rank (pJ)
system.mem_ctrls_0.readEnergy              6766515600                       # Energy for read commands per rank (pJ)
system.mem_ctrls_0.writeEnergy             2112259680                       # Energy for write commands per rank (pJ)
system.mem_ctrls_0.refreshEnergy         198024618480                       # Energy for refresh commands per rank (pJ)
system.mem_ctrls_0.actBackEnergy         550152216675                       # Energy for active background per rank (pJ)
system.mem_ctrls_0.preBackEnergy         1336510525500                       # Energy for precharge background per rank (pJ)
system.mem_ctrls_0.totalEnergy           2097444960000                       # Total energy per rank (pJ)
system.mem_ctrls_0.averagePower            691.807402                       # Core power per rank (mW)
system.mem_ctrls_0.memoryStateTime::IDLE 2219923358252                       # Time in different power states
system.mem_ctrls_0.memoryStateTime::REF  101239580000                       # Time in different power states
system.mem_ctrls_0.memoryStateTime::PRE_PDN            0                       # Time in different power states
system.mem_ctrls_0.memoryStateTime::ACT  710670723498                       # Time in different power states
system.mem_ctrls_0.memoryStateTime::ACT_PDN            0                       # Time in different power states
system.mem_ctrls_1.actEnergy               2513866320                       # Energy for activate commands per rank (pJ)
system.mem_ctrls_1.preEnergy               1371653250                       # Energy for precharge commands per rank (pJ)
system.mem_ctrls_1.readEnergy              6783675600                       # Energy for read commands per rank (pJ)
system.mem_ctrls_1.writeEnergy             2122102800                       # Energy for write commands per rank (pJ)
system.mem_ctrls_1.refreshEnergy         198024618480                       # Energy for refresh commands per rank (pJ)
system.mem_ctrls_1.actBackEnergy         552375195300                       # Energy for active background per rank (pJ)
system.mem_ctrls_1.preBackEnergy         1334560541250                       # Energy for precharge background per rank (pJ)
system.mem_ctrls_1.totalEnergy           2097751653000                       # Total energy per rank (pJ)
system.mem_ctrls_1.averagePower            691.908561                       # Core power per rank (mW)
system.mem_ctrls_1.memoryStateTime::IDLE 2216662115251                       # Time in different power states
system.mem_ctrls_1.memoryStateTime::REF  101239580000                       # Time in different power states
system.mem_ctrls_1.memoryStateTime::PRE_PDN            0                       # Time in different power states
system.mem_ctrls_1.memoryStateTime::ACT  713932521249                       # Time in different power states
system.mem_ctrls_1.memoryStateTime::ACT_PDN            0                       # Time in different power states
system.cpu_voltage_domain.voltage                   1                       # Voltage in Volts
system.cpu_clk_domain.clock                       500                       # Clock period in ticks
system.cpu0.apic_clk_domain.clock                8000                       # Clock period in ticks
system.cpu0.workload.num_syscalls                 272                       # Number of system calls
system.cpu0.numCycles                      6063680505                       # number of cpu cycles simulated
system.cpu0.numWorkItemsStarted                     0                       # number of work items this cpu started
system.cpu0.numWorkItemsCompleted                   0                       # number of work items this cpu completed
system.cpu0.committedInsts                 1677517129                       # Number of instructions committed
system.cpu0.committedOps                   4816317688                       # Number of ops (including micro ops) committed
system.cpu0.num_int_alu_accesses           4542417690                       # Number of integer alu accesses
system.cpu0.num_fp_alu_accesses             116281189                       # Number of float alu accesses
system.cpu0.num_func_calls                  163074936                       # number of times a function call or return occured
system.cpu0.num_conditional_control_insts    370196065                       # number of instructions that are conditional controls
system.cpu0.num_int_insts                  4542417690                       # number of integer instructions
system.cpu0.num_fp_insts                    116281189                       # number of float instructions
system.cpu0.num_int_register_reads         9565372541                       # number of times the integer registers were read
system.cpu0.num_int_register_writes        4532895749                       # number of times the integer registers were written
system.cpu0.num_fp_register_reads           186868429                       # number of times the floating registers were read
system.cpu0.num_fp_register_writes           91388808                       # number of times the floating registers were written
system.cpu0.num_cc_register_reads          3844772900                       # number of times the CC registers were read
system.cpu0.num_cc_register_writes         1442577093                       # number of times the CC registers were written
system.cpu0.num_mem_refs                    727368983                       # number of memory refs
system.cpu0.num_load_insts                  441635040                       # Number of load instructions
system.cpu0.num_store_insts                 285733943                       # Number of store instructions
system.cpu0.num_idle_cycles                  0.002000                       # Number of idle cycles
system.cpu0.num_busy_cycles              6063680504.998000                       # Number of busy cycles
system.cpu0.not_idle_fraction                1.000000                       # Percentage of non-idle cycles
system.cpu0.idle_fraction                    0.000000                       # Percentage of idle cycles
system.cpu0.Branches                        611449030                       # Number of branches fetched
system.cpu0.op_class::No_OpClass             94599445      1.96%      1.96% # Class of executed instruction
system.cpu0.op_class::IntAlu               3495663430     72.58%     74.54% # Class of executed instruction
system.cpu0.op_class::IntMult                     490      0.00%     74.54% # Class of executed instruction
system.cpu0.op_class::IntDiv                407297348      8.46%     83.00% # Class of executed instruction
system.cpu0.op_class::FloatAdd               91387992      1.90%     84.90% # Class of executed instruction
system.cpu0.op_class::FloatCmp                      0      0.00%     84.90% # Class of executed instruction
system.cpu0.op_class::FloatCvt                      0      0.00%     84.90% # Class of executed instruction
system.cpu0.op_class::FloatMult                     0      0.00%     84.90% # Class of executed instruction
system.cpu0.op_class::FloatDiv                      0      0.00%     84.90% # Class of executed instruction
system.cpu0.op_class::FloatSqrt                     0      0.00%     84.90% # Class of executed instruction
system.cpu0.op_class::SimdAdd                       0      0.00%     84.90% # Class of executed instruction
system.cpu0.op_class::SimdAddAcc                    0      0.00%     84.90% # Class of executed instruction
system.cpu0.op_class::SimdAlu                       0      0.00%     84.90% # Class of executed instruction
system.cpu0.op_class::SimdCmp                       0      0.00%     84.90% # Class of executed instruction
system.cpu0.op_class::SimdCvt                       0      0.00%     84.90% # Class of executed instruction
system.cpu0.op_class::SimdMisc                      0      0.00%     84.90% # Class of executed instruction
system.cpu0.op_class::SimdMult                      0      0.00%     84.90% # Class of executed instruction
system.cpu0.op_class::SimdMultAcc                   0      0.00%     84.90% # Class of executed instruction
system.cpu0.op_class::SimdShift                     0      0.00%     84.90% # Class of executed instruction
system.cpu0.op_class::SimdShiftAcc                  0      0.00%     84.90% # Class of executed instruction
system.cpu0.op_class::SimdSqrt                      0      0.00%     84.90% # Class of executed instruction
system.cpu0.op_class::SimdFloatAdd                  0      0.00%     84.90% # Class of executed instruction
system.cpu0.op_class::SimdFloatAlu                  0      0.00%     84.90% # Class of executed instruction
system.cpu0.op_class::SimdFloatCmp                  0      0.00%     84.90% # Class of executed instruction
system.cpu0.op_class::SimdFloatCvt                  0      0.00%     84.90% # Class of executed instruction
system.cpu0.op_class::SimdFloatDiv                  0      0.00%     84.90% # Class of executed instruction
system.cpu0.op_class::SimdFloatMisc                 0      0.00%     84.90% # Class of executed instruction
system.cpu0.op_class::SimdFloatMult                 0      0.00%     84.90% # Class of executed instruction
system.cpu0.op_class::SimdFloatMultAcc              0      0.00%     84.90% # Class of executed instruction
system.cpu0.op_class::SimdFloatSqrt                 0      0.00%     84.90% # Class of executed instruction
system.cpu0.op_class::MemRead               441635040      9.17%     94.07% # Class of executed instruction
system.cpu0.op_class::MemWrite              285733943      5.93%    100.00% # Class of executed instruction
system.cpu0.op_class::IprAccess                     0      0.00%    100.00% # Class of executed instruction
system.cpu0.op_class::InstPrefetch                  0      0.00%    100.00% # Class of executed instruction
system.cpu0.op_class::total                4816317688                       # Class of executed instruction
system.cpu1.apic_clk_domain.clock                8000                       # Clock period in ticks
system.cpu1.numCycles                      6063257084                       # number of cpu cycles simulated
system.cpu1.numWorkItemsStarted                     0                       # number of work items this cpu started
system.cpu1.numWorkItemsCompleted                   0                       # number of work items this cpu completed
system.cpu1.committedInsts                   16277621                       # Number of instructions committed
system.cpu1.committedOps                     32371700                       # Number of ops (including micro ops) committed
system.cpu1.num_int_alu_accesses             25372140                       # Number of integer alu accesses
system.cpu1.num_fp_alu_accesses              17579765                       # Number of float alu accesses
system.cpu1.num_func_calls                      40491                       # number of times a function call or return occured
system.cpu1.num_conditional_control_insts      1783388                       # number of instructions that are conditional controls
system.cpu1.num_int_insts                    25372140                       # number of integer instructions
system.cpu1.num_fp_insts                     17579765                       # number of float instructions
system.cpu1.num_int_register_reads           49037197                       # number of times the integer registers were read
system.cpu1.num_int_register_writes          12986626                       # number of times the integer registers were written
system.cpu1.num_fp_register_reads            24437779                       # number of times the floating registers were read
system.cpu1.num_fp_register_writes           14019328                       # number of times the floating registers were written
system.cpu1.num_cc_register_reads            10720595                       # number of times the CC registers were read
system.cpu1.num_cc_register_writes           10714264                       # number of times the CC registers were written
system.cpu1.num_mem_refs                     10684687                       # number of memory refs
system.cpu1.num_load_insts                    7103938                       # Number of load instructions
system.cpu1.num_store_insts                   3580749                       # Number of store instructions
system.cpu1.num_idle_cycles              5982056008.589295                       # Number of idle cycles
system.cpu1.num_busy_cycles              81201075.410705                       # Number of busy cycles
system.cpu1.not_idle_fraction                0.013392                       # Percentage of non-idle cycles
system.cpu1.idle_fraction                    0.986608                       # Percentage of idle cycles
system.cpu1.Branches                          1845679                       # Number of branches fetched
system.cpu1.op_class::No_OpClass                    2      0.00%      0.00% # Class of executed instruction
system.cpu1.op_class::IntAlu                 14626767     45.18%     45.18% # Class of executed instruction
system.cpu1.op_class::IntMult                   60671      0.19%     45.37% # Class of executed instruction
system.cpu1.op_class::IntDiv                       14      0.00%     45.37% # Class of executed instruction
system.cpu1.op_class::FloatAdd                6999559     21.62%     66.99% # Class of executed instruction
system.cpu1.op_class::FloatCmp                      0      0.00%     66.99% # Class of executed instruction
system.cpu1.op_class::FloatCvt                      0      0.00%     66.99% # Class of executed instruction
system.cpu1.op_class::FloatMult                     0      0.00%     66.99% # Class of executed instruction
system.cpu1.op_class::FloatDiv                      0      0.00%     66.99% # Class of executed instruction
system.cpu1.op_class::FloatSqrt                     0      0.00%     66.99% # Class of executed instruction
system.cpu1.op_class::SimdAdd                       0      0.00%     66.99% # Class of executed instruction
system.cpu1.op_class::SimdAddAcc                    0      0.00%     66.99% # Class of executed instruction
system.cpu1.op_class::SimdAlu                       0      0.00%     66.99% # Class of executed instruction
system.cpu1.op_class::SimdCmp                       0      0.00%     66.99% # Class of executed instruction
system.cpu1.op_class::SimdCvt                       0      0.00%     66.99% # Class of executed instruction
system.cpu1.op_class::SimdMisc                      0      0.00%     66.99% # Class of executed instruction
system.cpu1.op_class::SimdMult                      0      0.00%     66.99% # Class of executed instruction
system.cpu1.op_class::SimdMultAcc                   0      0.00%     66.99% # Class of executed instruction
system.cpu1.op_class::SimdShift                     0      0.00%     66.99% # Class of executed instruction
system.cpu1.op_class::SimdShiftAcc                  0      0.00%     66.99% # Class of executed instruction
system.cpu1.op_class::SimdSqrt                      0      0.00%     66.99% # Class of executed instruction
system.cpu1.op_class::SimdFloatAdd                  0      0.00%     66.99% # Class of executed instruction
system.cpu1.op_class::SimdFloatAlu                  0      0.00%     66.99% # Class of executed instruction
system.cpu1.op_class::SimdFloatCmp                  0      0.00%     66.99% # Class of executed instruction
system.cpu1.op_class::SimdFloatCvt                  0      0.00%     66.99% # Class of executed instruction
system.cpu1.op_class::SimdFloatDiv                  0      0.00%     66.99% # Class of executed instruction
system.cpu1.op_class::SimdFloatMisc                 0      0.00%     66.99% # Class of executed instruction
system.cpu1.op_class::SimdFloatMult                 0      0.00%     66.99% # Class of executed instruction
system.cpu1.op_class::SimdFloatMultAcc              0      0.00%     66.99% # Class of executed instruction
system.cpu1.op_class::SimdFloatSqrt                 0      0.00%     66.99% # Class of executed instruction
system.cpu1.op_class::MemRead                 7103938     21.94%     88.94% # Class of executed instruction
system.cpu1.op_class::MemWrite                3580749     11.06%    100.00% # Class of executed instruction
system.cpu1.op_class::IprAccess                     0      0.00%    100.00% # Class of executed instruction
system.cpu1.op_class::InstPrefetch                  0      0.00%    100.00% # Class of executed instruction
system.cpu1.op_class::total                  32371700                       # Class of executed instruction
system.cpu2.apic_clk_domain.clock                8000                       # Clock period in ticks
system.cpu2.numCycles                      6063311296                       # number of cpu cycles simulated
system.cpu2.numWorkItemsStarted                     0                       # number of work items this cpu started
system.cpu2.numWorkItemsCompleted                   0                       # number of work items this cpu completed
system.cpu2.committedInsts                   16277621                       # Number of instructions committed
system.cpu2.committedOps                     32371700                       # Number of ops (including micro ops) committed
system.cpu2.num_int_alu_accesses             25372140                       # Number of integer alu accesses
system.cpu2.num_fp_alu_accesses              17579765                       # Number of float alu accesses
system.cpu2.num_func_calls                      40491                       # number of times a function call or return occured
system.cpu2.num_conditional_control_insts      1783388                       # number of instructions that are conditional controls
system.cpu2.num_int_insts                    25372140                       # number of integer instructions
system.cpu2.num_fp_insts                     17579765                       # number of float instructions
system.cpu2.num_int_register_reads           49037197                       # number of times the integer registers were read
system.cpu2.num_int_register_writes          12986626                       # number of times the integer registers were written
system.cpu2.num_fp_register_reads            24437779                       # number of times the floating registers were read
system.cpu2.num_fp_register_writes           14019328                       # number of times the floating registers were written
system.cpu2.num_cc_register_reads            10720595                       # number of times the CC registers were read
system.cpu2.num_cc_register_writes           10714264                       # number of times the CC registers were written
system.cpu2.num_mem_refs                     10684687                       # number of memory refs
system.cpu2.num_load_insts                    7103938                       # Number of load instructions
system.cpu2.num_store_insts                   3580749                       # Number of store instructions
system.cpu2.num_idle_cycles              5982056017.821198                       # Number of idle cycles
system.cpu2.num_busy_cycles              81255278.178801                       # Number of busy cycles
system.cpu2.not_idle_fraction                0.013401                       # Percentage of non-idle cycles
system.cpu2.idle_fraction                    0.986599                       # Percentage of idle cycles
system.cpu2.Branches                          1845679                       # Number of branches fetched
system.cpu2.op_class::No_OpClass                    2      0.00%      0.00% # Class of executed instruction
system.cpu2.op_class::IntAlu                 14626767     45.18%     45.18% # Class of executed instruction
system.cpu2.op_class::IntMult                   60671      0.19%     45.37% # Class of executed instruction
system.cpu2.op_class::IntDiv                       14      0.00%     45.37% # Class of executed instruction
system.cpu2.op_class::FloatAdd                6999559     21.62%     66.99% # Class of executed instruction
system.cpu2.op_class::FloatCmp                      0      0.00%     66.99% # Class of executed instruction
system.cpu2.op_class::FloatCvt                      0      0.00%     66.99% # Class of executed instruction
system.cpu2.op_class::FloatMult                     0      0.00%     66.99% # Class of executed instruction
system.cpu2.op_class::FloatDiv                      0      0.00%     66.99% # Class of executed instruction
system.cpu2.op_class::FloatSqrt                     0      0.00%     66.99% # Class of executed instruction
system.cpu2.op_class::SimdAdd                       0      0.00%     66.99% # Class of executed instruction
system.cpu2.op_class::SimdAddAcc                    0      0.00%     66.99% # Class of executed instruction
system.cpu2.op_class::SimdAlu                       0      0.00%     66.99% # Class of executed instruction
system.cpu2.op_class::SimdCmp                       0      0.00%     66.99% # Class of executed instruction
system.cpu2.op_class::SimdCvt                       0      0.00%     66.99% # Class of executed instruction
system.cpu2.op_class::SimdMisc                      0      0.00%     66.99% # Class of executed instruction
system.cpu2.op_class::SimdMult                      0      0.00%     66.99% # Class of executed instruction
system.cpu2.op_class::SimdMultAcc                   0      0.00%     66.99% # Class of executed instruction
system.cpu2.op_class::SimdShift                     0      0.00%     66.99% # Class of executed instruction
system.cpu2.op_class::SimdShiftAcc                  0      0.00%     66.99% # Class of executed instruction
system.cpu2.op_class::SimdSqrt                      0      0.00%     66.99% # Class of executed instruction
system.cpu2.op_class::SimdFloatAdd                  0      0.00%     66.99% # Class of executed instruction
system.cpu2.op_class::SimdFloatAlu                  0      0.00%     66.99% # Class of executed instruction
system.cpu2.op_class::SimdFloatCmp                  0      0.00%     66.99% # Class of executed instruction
system.cpu2.op_class::SimdFloatCvt                  0      0.00%     66.99% # Class of executed instruction
system.cpu2.op_class::SimdFloatDiv                  0      0.00%     66.99% # Class of executed instruction
system.cpu2.op_class::SimdFloatMisc                 0      0.00%     66.99% # Class of executed instruction
system.cpu2.op_class::SimdFloatMult                 0      0.00%     66.99% # Class of executed instruction
system.cpu2.op_class::SimdFloatMultAcc              0      0.00%     66.99% # Class of executed instruction
system.cpu2.op_class::SimdFloatSqrt                 0      0.00%     66.99% # Class of executed instruction
system.cpu2.op_class::MemRead                 7103938     21.94%     88.94% # Class of executed instruction
system.cpu2.op_class::MemWrite                3580749     11.06%    100.00% # Class of executed instruction
system.cpu2.op_class::IprAccess                     0      0.00%    100.00% # Class of executed instruction
system.cpu2.op_class::InstPrefetch                  0      0.00%    100.00% # Class of executed instruction
system.cpu2.op_class::total                  32371700                       # Class of executed instruction
system.cpu3.apic_clk_domain.clock                8000                       # Clock period in ticks
system.cpu3.numCycles                      6063311417                       # number of cpu cycles simulated
system.cpu3.numWorkItemsStarted                     0                       # number of work items this cpu started
system.cpu3.numWorkItemsCompleted                   0                       # number of work items this cpu completed
system.cpu3.committedInsts                   16277621                       # Number of instructions committed
system.cpu3.committedOps                     32371700                       # Number of ops (including micro ops) committed
system.cpu3.num_int_alu_accesses             25372140                       # Number of integer alu accesses
system.cpu3.num_fp_alu_accesses              17579765                       # Number of float alu accesses
system.cpu3.num_func_calls                      40491                       # number of times a function call or return occured
system.cpu3.num_conditional_control_insts      1783388                       # number of instructions that are conditional controls
system.cpu3.num_int_insts                    25372140                       # number of integer instructions
system.cpu3.num_fp_insts                     17579765                       # number of float instructions
system.cpu3.num_int_register_reads           49037197                       # number of times the integer registers were read
system.cpu3.num_int_register_writes          12986626                       # number of times the integer registers were written
system.cpu3.num_fp_register_reads            24437779                       # number of times the floating registers were read
system.cpu3.num_fp_register_writes           14019328                       # number of times the floating registers were written
system.cpu3.num_cc_register_reads            10720595                       # number of times the CC registers were read
system.cpu3.num_cc_register_writes           10714264                       # number of times the CC registers were written
system.cpu3.num_mem_refs                     10684687                       # number of memory refs
system.cpu3.num_load_insts                    7103938                       # Number of load instructions
system.cpu3.num_store_insts                   3580749                       # Number of store instructions
system.cpu3.num_idle_cycles              5982057333.126862                       # Number of idle cycles
system.cpu3.num_busy_cycles              81254083.873138                       # Number of busy cycles
system.cpu3.not_idle_fraction                0.013401                       # Percentage of non-idle cycles
system.cpu3.idle_fraction                    0.986599                       # Percentage of idle cycles
system.cpu3.Branches                          1845679                       # Number of branches fetched
system.cpu3.op_class::No_OpClass                    2      0.00%      0.00% # Class of executed instruction
system.cpu3.op_class::IntAlu                 14626767     45.18%     45.18% # Class of executed instruction
system.cpu3.op_class::IntMult                   60671      0.19%     45.37% # Class of executed instruction
system.cpu3.op_class::IntDiv                       14      0.00%     45.37% # Class of executed instruction
system.cpu3.op_class::FloatAdd                6999559     21.62%     66.99% # Class of executed instruction
system.cpu3.op_class::FloatCmp                      0      0.00%     66.99% # Class of executed instruction
system.cpu3.op_class::FloatCvt                      0      0.00%     66.99% # Class of executed instruction
system.cpu3.op_class::FloatMult                     0      0.00%     66.99% # Class of executed instruction
system.cpu3.op_class::FloatDiv                      0      0.00%     66.99% # Class of executed instruction
system.cpu3.op_class::FloatSqrt                     0      0.00%     66.99% # Class of executed instruction
system.cpu3.op_class::SimdAdd                       0      0.00%     66.99% # Class of executed instruction
system.cpu3.op_class::SimdAddAcc                    0      0.00%     66.99% # Class of executed instruction
system.cpu3.op_class::SimdAlu                       0      0.00%     66.99% # Class of executed instruction
system.cpu3.op_class::SimdCmp                       0      0.00%     66.99% # Class of executed instruction
system.cpu3.op_class::SimdCvt                       0      0.00%     66.99% # Class of executed instruction
system.cpu3.op_class::SimdMisc                      0      0.00%     66.99% # Class of executed instruction
system.cpu3.op_class::SimdMult                      0      0.00%     66.99% # Class of executed instruction
system.cpu3.op_class::SimdMultAcc                   0      0.00%     66.99% # Class of executed instruction
system.cpu3.op_class::SimdShift                     0      0.00%     66.99% # Class of executed instruction
system.cpu3.op_class::SimdShiftAcc                  0      0.00%     66.99% # Class of executed instruction
system.cpu3.op_class::SimdSqrt                      0      0.00%     66.99% # Class of executed instruction
system.cpu3.op_class::SimdFloatAdd                  0      0.00%     66.99% # Class of executed instruction
system.cpu3.op_class::SimdFloatAlu                  0      0.00%     66.99% # Class of executed instruction
system.cpu3.op_class::SimdFloatCmp                  0      0.00%     66.99% # Class of executed instruction
system.cpu3.op_class::SimdFloatCvt                  0      0.00%     66.99% # Class of executed instruction
system.cpu3.op_class::SimdFloatDiv                  0      0.00%     66.99% # Class of executed instruction
system.cpu3.op_class::SimdFloatMisc                 0      0.00%     66.99% # Class of executed instruction
system.cpu3.op_class::SimdFloatMult                 0      0.00%     66.99% # Class of executed instruction
system.cpu3.op_class::SimdFloatMultAcc              0      0.00%     66.99% # Class of executed instruction
system.cpu3.op_class::SimdFloatSqrt                 0      0.00%     66.99% # Class of executed instruction
system.cpu3.op_class::MemRead                 7103938     21.94%     88.94% # Class of executed instruction
system.cpu3.op_class::MemWrite                3580749     11.06%    100.00% # Class of executed instruction
system.cpu3.op_class::IprAccess                     0      0.00%    100.00% # Class of executed instruction
system.cpu3.op_class::InstPrefetch                  0      0.00%    100.00% # Class of executed instruction
system.cpu3.op_class::total                  32371700                       # Class of executed instruction
system.cpu4.apic_clk_domain.clock                8000                       # Clock period in ticks
system.cpu4.numCycles                      6063310704                       # number of cpu cycles simulated
system.cpu4.numWorkItemsStarted                     0                       # number of work items this cpu started
system.cpu4.numWorkItemsCompleted                   0                       # number of work items this cpu completed
system.cpu4.committedInsts                   16277621                       # Number of instructions committed
system.cpu4.committedOps                     32371700                       # Number of ops (including micro ops) committed
system.cpu4.num_int_alu_accesses             25372140                       # Number of integer alu accesses
system.cpu4.num_fp_alu_accesses              17579765                       # Number of float alu accesses
system.cpu4.num_func_calls                      40491                       # number of times a function call or return occured
system.cpu4.num_conditional_control_insts      1783388                       # number of instructions that are conditional controls
system.cpu4.num_int_insts                    25372140                       # number of integer instructions
system.cpu4.num_fp_insts                     17579765                       # number of float instructions
system.cpu4.num_int_register_reads           49037197                       # number of times the integer registers were read
system.cpu4.num_int_register_writes          12986626                       # number of times the integer registers were written
system.cpu4.num_fp_register_reads            24437779                       # number of times the floating registers were read
system.cpu4.num_fp_register_writes           14019328                       # number of times the floating registers were written
system.cpu4.num_cc_register_reads            10720595                       # number of times the CC registers were read
system.cpu4.num_cc_register_writes           10714264                       # number of times the CC registers were written
system.cpu4.num_mem_refs                     10684687                       # number of memory refs
system.cpu4.num_load_insts                    7103938                       # Number of load instructions
system.cpu4.num_store_insts                   3580749                       # Number of store instructions
system.cpu4.num_idle_cycles              5982057953.600988                       # Number of idle cycles
system.cpu4.num_busy_cycles              81252750.399012                       # Number of busy cycles
system.cpu4.not_idle_fraction                0.013401                       # Percentage of non-idle cycles
system.cpu4.idle_fraction                    0.986599                       # Percentage of idle cycles
system.cpu4.Branches                          1845679                       # Number of branches fetched
system.cpu4.op_class::No_OpClass                    2      0.00%      0.00% # Class of executed instruction
system.cpu4.op_class::IntAlu                 14626767     45.18%     45.18% # Class of executed instruction
system.cpu4.op_class::IntMult                   60671      0.19%     45.37% # Class of executed instruction
system.cpu4.op_class::IntDiv                       14      0.00%     45.37% # Class of executed instruction
system.cpu4.op_class::FloatAdd                6999559     21.62%     66.99% # Class of executed instruction
system.cpu4.op_class::FloatCmp                      0      0.00%     66.99% # Class of executed instruction
system.cpu4.op_class::FloatCvt                      0      0.00%     66.99% # Class of executed instruction
system.cpu4.op_class::FloatMult                     0      0.00%     66.99% # Class of executed instruction
system.cpu4.op_class::FloatDiv                      0      0.00%     66.99% # Class of executed instruction
system.cpu4.op_class::FloatSqrt                     0      0.00%     66.99% # Class of executed instruction
system.cpu4.op_class::SimdAdd                       0      0.00%     66.99% # Class of executed instruction
system.cpu4.op_class::SimdAddAcc                    0      0.00%     66.99% # Class of executed instruction
system.cpu4.op_class::SimdAlu                       0      0.00%     66.99% # Class of executed instruction
system.cpu4.op_class::SimdCmp                       0      0.00%     66.99% # Class of executed instruction
system.cpu4.op_class::SimdCvt                       0      0.00%     66.99% # Class of executed instruction
system.cpu4.op_class::SimdMisc                      0      0.00%     66.99% # Class of executed instruction
system.cpu4.op_class::SimdMult                      0      0.00%     66.99% # Class of executed instruction
system.cpu4.op_class::SimdMultAcc                   0      0.00%     66.99% # Class of executed instruction
system.cpu4.op_class::SimdShift                     0      0.00%     66.99% # Class of executed instruction
system.cpu4.op_class::SimdShiftAcc                  0      0.00%     66.99% # Class of executed instruction
system.cpu4.op_class::SimdSqrt                      0      0.00%     66.99% # Class of executed instruction
system.cpu4.op_class::SimdFloatAdd                  0      0.00%     66.99% # Class of executed instruction
system.cpu4.op_class::SimdFloatAlu                  0      0.00%     66.99% # Class of executed instruction
system.cpu4.op_class::SimdFloatCmp                  0      0.00%     66.99% # Class of executed instruction
system.cpu4.op_class::SimdFloatCvt                  0      0.00%     66.99% # Class of executed instruction
system.cpu4.op_class::SimdFloatDiv                  0      0.00%     66.99% # Class of executed instruction
system.cpu4.op_class::SimdFloatMisc                 0      0.00%     66.99% # Class of executed instruction
system.cpu4.op_class::SimdFloatMult                 0      0.00%     66.99% # Class of executed instruction
system.cpu4.op_class::SimdFloatMultAcc              0      0.00%     66.99% # Class of executed instruction
system.cpu4.op_class::SimdFloatSqrt                 0      0.00%     66.99% # Class of executed instruction
system.cpu4.op_class::MemRead                 7103938     21.94%     88.94% # Class of executed instruction
system.cpu4.op_class::MemWrite                3580749     11.06%    100.00% # Class of executed instruction
system.cpu4.op_class::IprAccess                     0      0.00%    100.00% # Class of executed instruction
system.cpu4.op_class::InstPrefetch                  0      0.00%    100.00% # Class of executed instruction
system.cpu4.op_class::total                  32371700                       # Class of executed instruction
system.cpu5.apic_clk_domain.clock                8000                       # Clock period in ticks
system.cpu5.numCycles                      6063310175                       # number of cpu cycles simulated
system.cpu5.numWorkItemsStarted                     0                       # number of work items this cpu started
system.cpu5.numWorkItemsCompleted                   0                       # number of work items this cpu completed
system.cpu5.committedInsts                   16277621                       # Number of instructions committed
system.cpu5.committedOps                     32371700                       # Number of ops (including micro ops) committed
system.cpu5.num_int_alu_accesses             25372140                       # Number of integer alu accesses
system.cpu5.num_fp_alu_accesses              17579765                       # Number of float alu accesses
system.cpu5.num_func_calls                      40491                       # number of times a function call or return occured
system.cpu5.num_conditional_control_insts      1783388                       # number of instructions that are conditional controls
system.cpu5.num_int_insts                    25372140                       # number of integer instructions
system.cpu5.num_fp_insts                     17579765                       # number of float instructions
system.cpu5.num_int_register_reads           49037197                       # number of times the integer registers were read
system.cpu5.num_int_register_writes          12986626                       # number of times the integer registers were written
system.cpu5.num_fp_register_reads            24437779                       # number of times the floating registers were read
system.cpu5.num_fp_register_writes           14019328                       # number of times the floating registers were written
system.cpu5.num_cc_register_reads            10720595                       # number of times the CC registers were read
system.cpu5.num_cc_register_writes           10714264                       # number of times the CC registers were written
system.cpu5.num_mem_refs                     10684687                       # number of memory refs
system.cpu5.num_load_insts                    7103938                       # Number of load instructions
system.cpu5.num_store_insts                   3580749                       # Number of store instructions
system.cpu5.num_idle_cycles              5982058914.599399                       # Number of idle cycles
system.cpu5.num_busy_cycles              81251260.400602                       # Number of busy cycles
system.cpu5.not_idle_fraction                0.013400                       # Percentage of non-idle cycles
system.cpu5.idle_fraction                    0.986600                       # Percentage of idle cycles
system.cpu5.Branches                          1845679                       # Number of branches fetched
system.cpu5.op_class::No_OpClass                    2      0.00%      0.00% # Class of executed instruction
system.cpu5.op_class::IntAlu                 14626767     45.18%     45.18% # Class of executed instruction
system.cpu5.op_class::IntMult                   60671      0.19%     45.37% # Class of executed instruction
system.cpu5.op_class::IntDiv                       14      0.00%     45.37% # Class of executed instruction
system.cpu5.op_class::FloatAdd                6999559     21.62%     66.99% # Class of executed instruction
system.cpu5.op_class::FloatCmp                      0      0.00%     66.99% # Class of executed instruction
system.cpu5.op_class::FloatCvt                      0      0.00%     66.99% # Class of executed instruction
system.cpu5.op_class::FloatMult                     0      0.00%     66.99% # Class of executed instruction
system.cpu5.op_class::FloatDiv                      0      0.00%     66.99% # Class of executed instruction
system.cpu5.op_class::FloatSqrt                     0      0.00%     66.99% # Class of executed instruction
system.cpu5.op_class::SimdAdd                       0      0.00%     66.99% # Class of executed instruction
system.cpu5.op_class::SimdAddAcc                    0      0.00%     66.99% # Class of executed instruction
system.cpu5.op_class::SimdAlu                       0      0.00%     66.99% # Class of executed instruction
system.cpu5.op_class::SimdCmp                       0      0.00%     66.99% # Class of executed instruction
system.cpu5.op_class::SimdCvt                       0      0.00%     66.99% # Class of executed instruction
system.cpu5.op_class::SimdMisc                      0      0.00%     66.99% # Class of executed instruction
system.cpu5.op_class::SimdMult                      0      0.00%     66.99% # Class of executed instruction
system.cpu5.op_class::SimdMultAcc                   0      0.00%     66.99% # Class of executed instruction
system.cpu5.op_class::SimdShift                     0      0.00%     66.99% # Class of executed instruction
system.cpu5.op_class::SimdShiftAcc                  0      0.00%     66.99% # Class of executed instruction
system.cpu5.op_class::SimdSqrt                      0      0.00%     66.99% # Class of executed instruction
system.cpu5.op_class::SimdFloatAdd                  0      0.00%     66.99% # Class of executed instruction
system.cpu5.op_class::SimdFloatAlu                  0      0.00%     66.99% # Class of executed instruction
system.cpu5.op_class::SimdFloatCmp                  0      0.00%     66.99% # Class of executed instruction
system.cpu5.op_class::SimdFloatCvt                  0      0.00%     66.99% # Class of executed instruction
system.cpu5.op_class::SimdFloatDiv                  0      0.00%     66.99% # Class of executed instruction
system.cpu5.op_class::SimdFloatMisc                 0      0.00%     66.99% # Class of executed instruction
system.cpu5.op_class::SimdFloatMult                 0      0.00%     66.99% # Class of executed instruction
system.cpu5.op_class::SimdFloatMultAcc              0      0.00%     66.99% # Class of executed instruction
system.cpu5.op_class::SimdFloatSqrt                 0      0.00%     66.99% # Class of executed instruction
system.cpu5.op_class::MemRead                 7103938     21.94%     88.94% # Class of executed instruction
system.cpu5.op_class::MemWrite                3580749     11.06%    100.00% # Class of executed instruction
system.cpu5.op_class::IprAccess                     0      0.00%    100.00% # Class of executed instruction
system.cpu5.op_class::InstPrefetch                  0      0.00%    100.00% # Class of executed instruction
system.cpu5.op_class::total                  32371700                       # Class of executed instruction
system.cpu6.apic_clk_domain.clock                8000                       # Clock period in ticks
system.cpu6.numCycles                      6063311783                       # number of cpu cycles simulated
system.cpu6.numWorkItemsStarted                     0                       # number of work items this cpu started
system.cpu6.numWorkItemsCompleted                   0                       # number of work items this cpu completed
system.cpu6.committedInsts                   16277621                       # Number of instructions committed
system.cpu6.committedOps                     32371700                       # Number of ops (including micro ops) committed
system.cpu6.num_int_alu_accesses             25372140                       # Number of integer alu accesses
system.cpu6.num_fp_alu_accesses              17579765                       # Number of float alu accesses
system.cpu6.num_func_calls                      40491                       # number of times a function call or return occured
system.cpu6.num_conditional_control_insts      1783388                       # number of instructions that are conditional controls
system.cpu6.num_int_insts                    25372140                       # number of integer instructions
system.cpu6.num_fp_insts                     17579765                       # number of float instructions
system.cpu6.num_int_register_reads           49037197                       # number of times the integer registers were read
system.cpu6.num_int_register_writes          12986626                       # number of times the integer registers were written
system.cpu6.num_fp_register_reads            24437779                       # number of times the floating registers were read
system.cpu6.num_fp_register_writes           14019328                       # number of times the floating registers were written
system.cpu6.num_cc_register_reads            10720595                       # number of times the CC registers were read
system.cpu6.num_cc_register_writes           10714264                       # number of times the CC registers were written
system.cpu6.num_mem_refs                     10684687                       # number of memory refs
system.cpu6.num_load_insts                    7103938                       # Number of load instructions
system.cpu6.num_store_insts                   3580749                       # Number of store instructions
system.cpu6.num_idle_cycles              5982059850.091014                       # Number of idle cycles
system.cpu6.num_busy_cycles              81251932.908986                       # Number of busy cycles
system.cpu6.not_idle_fraction                0.013401                       # Percentage of non-idle cycles
system.cpu6.idle_fraction                    0.986599                       # Percentage of idle cycles
system.cpu6.Branches                          1845679                       # Number of branches fetched
system.cpu6.op_class::No_OpClass                    2      0.00%      0.00% # Class of executed instruction
system.cpu6.op_class::IntAlu                 14626767     45.18%     45.18% # Class of executed instruction
system.cpu6.op_class::IntMult                   60671      0.19%     45.37% # Class of executed instruction
system.cpu6.op_class::IntDiv                       14      0.00%     45.37% # Class of executed instruction
system.cpu6.op_class::FloatAdd                6999559     21.62%     66.99% # Class of executed instruction
system.cpu6.op_class::FloatCmp                      0      0.00%     66.99% # Class of executed instruction
system.cpu6.op_class::FloatCvt                      0      0.00%     66.99% # Class of executed instruction
system.cpu6.op_class::FloatMult                     0      0.00%     66.99% # Class of executed instruction
system.cpu6.op_class::FloatDiv                      0      0.00%     66.99% # Class of executed instruction
system.cpu6.op_class::FloatSqrt                     0      0.00%     66.99% # Class of executed instruction
system.cpu6.op_class::SimdAdd                       0      0.00%     66.99% # Class of executed instruction
system.cpu6.op_class::SimdAddAcc                    0      0.00%     66.99% # Class of executed instruction
system.cpu6.op_class::SimdAlu                       0      0.00%     66.99% # Class of executed instruction
system.cpu6.op_class::SimdCmp                       0      0.00%     66.99% # Class of executed instruction
system.cpu6.op_class::SimdCvt                       0      0.00%     66.99% # Class of executed instruction
system.cpu6.op_class::SimdMisc                      0      0.00%     66.99% # Class of executed instruction
system.cpu6.op_class::SimdMult                      0      0.00%     66.99% # Class of executed instruction
system.cpu6.op_class::SimdMultAcc                   0      0.00%     66.99% # Class of executed instruction
system.cpu6.op_class::SimdShift                     0      0.00%     66.99% # Class of executed instruction
system.cpu6.op_class::SimdShiftAcc                  0      0.00%     66.99% # Class of executed instruction
system.cpu6.op_class::SimdSqrt                      0      0.00%     66.99% # Class of executed instruction
system.cpu6.op_class::SimdFloatAdd                  0      0.00%     66.99% # Class of executed instruction
system.cpu6.op_class::SimdFloatAlu                  0      0.00%     66.99% # Class of executed instruction
system.cpu6.op_class::SimdFloatCmp                  0      0.00%     66.99% # Class of executed instruction
system.cpu6.op_class::SimdFloatCvt                  0      0.00%     66.99% # Class of executed instruction
system.cpu6.op_class::SimdFloatDiv                  0      0.00%     66.99% # Class of executed instruction
system.cpu6.op_class::SimdFloatMisc                 0      0.00%     66.99% # Class of executed instruction
system.cpu6.op_class::SimdFloatMult                 0      0.00%     66.99% # Class of executed instruction
system.cpu6.op_class::SimdFloatMultAcc              0      0.00%     66.99% # Class of executed instruction
system.cpu6.op_class::SimdFloatSqrt                 0      0.00%     66.99% # Class of executed instruction
system.cpu6.op_class::MemRead                 7103938     21.94%     88.94% # Class of executed instruction
system.cpu6.op_class::MemWrite                3580749     11.06%    100.00% # Class of executed instruction
system.cpu6.op_class::IprAccess                     0      0.00%    100.00% # Class of executed instruction
system.cpu6.op_class::InstPrefetch                  0      0.00%    100.00% # Class of executed instruction
system.cpu6.op_class::total                  32371700                       # Class of executed instruction
system.cpu7.apic_clk_domain.clock                8000                       # Clock period in ticks
system.cpu7.numCycles                      6063311206                       # number of cpu cycles simulated
system.cpu7.numWorkItemsStarted                     0                       # number of work items this cpu started
system.cpu7.numWorkItemsCompleted                   0                       # number of work items this cpu completed
system.cpu7.committedInsts                   16277621                       # Number of instructions committed
[...]
system.ruby.L1Cache_Controller.EE.Load::total          956                      
system.ruby.L1Cache_Controller.EE.Inv    |           9      4.17%      4.17% |          30     13.89%     18.06% |          20      9.26%     27.31% |          29     13.43%     40.74% |          52     24.07%     64.81% |          25     11.57%     76.39% |          23     10.65%     87.04% |          21      9.72%     96.76% |           7      3.24%    100.00%
system.ruby.L1Cache_Controller.EE.Inv::total          216                      
system.ruby.L1Cache_Controller.EE.L1_Replacement |        7072     95.17%     95.17% |          62      0.83%     96.00% |          42      0.57%     96.57% |          40      0.54%     97.11% |          40      0.54%     97.65% |          49      0.66%     98.30% |          49      0.66%     98.96% |          40      0.54%     99.50% |          37      0.50%    100.00%
system.ruby.L1Cache_Controller.EE.L1_Replacement::total         7431                      
system.ruby.L1Cache_Controller.EE.Fwd_GETX |           2    100.00%    100.00% |           0      0.00%    100.00% |           0      0.00%    100.00% |           0      0.00%    100.00% |           0      0.00%    100.00% |           0      0.00%    100.00% |           0      0.00%    100.00% |           0      0.00%    100.00% |           0      0.00%    100.00%
system.ruby.L1Cache_Controller.EE.Fwd_GETX::total            2                      
system.ruby.L1Cache_Controller.EE.Fwd_GETS |           8      0.01%      0.01% |       98393     81.26%     81.26% |        1697      1.40%     82.66% |       12244     10.11%     92.78% |          49      0.04%     92.82% |           9      0.01%     92.82% |        8472      7.00%     99.82% |           7      0.01%     99.83% |         210      0.17%    100.00%
system.ruby.L1Cache_Controller.EE.Fwd_GETS::total       121089                      
system.ruby.L1Cache_Controller.M.WriteBack |     2271265     86.04%     86.04% |       44056      1.67%     87.71% |       45666      1.73%     89.44% |       46512      1.76%     91.20% |       46097      1.75%     92.95% |       45590      1.73%     94.67% |       46858      1.78%     96.45% |       46971      1.78%     98.23% |       46756      1.77%    100.00%
system.ruby.L1Cache_Controller.M.WriteBack::total      2639771                      
system.ruby.L1Cache_Controller.M.L0_Invalidate_Own |       16418     93.82%     93.82% |         123      0.70%     94.53% |         202      1.15%     95.68% |         136      0.78%     96.46% |         113      0.65%     97.10% |         121      0.69%     97.79% |         109      0.62%     98.42% |         168      0.96%     99.38% |         109      0.62%    100.00%
system.ruby.L1Cache_Controller.M.L0_Invalidate_Own::total        17499                      
system.ruby.L1Cache_Controller.M.L0_Invalidate_Else |         835     55.85%     55.85% |         119      7.96%     63.81% |          59      3.95%     67.76% |          54      3.61%     71.37% |          62      4.15%     75.52% |          76      5.08%     80.60% |          22      1.47%     82.07% |         209     13.98%     96.05% |          59      3.95%    100.00%
system.ruby.L1Cache_Controller.M.L0_Invalidate_Else::total         1495                      
system.ruby.L1Cache_Controller.MM.Load   |         127      0.03%      0.03% |       44539     11.96%     12.00% |       46169     12.40%     24.40% |       46940     12.61%     37.01% |       46510     12.49%     49.50% |       46028     12.36%     61.86% |       47231     12.69%     74.55% |       47586     12.78%     87.33% |       47162     12.67%    100.00%
system.ruby.L1Cache_Controller.MM.Load::total       372292                      
system.ruby.L1Cache_Controller.MM.Store  |          96     94.12%     94.12% |           0      0.00%     94.12% |           1      0.98%     95.10% |           1      0.98%     96.08% |           1      0.98%     97.06% |           0      0.00%     97.06% |           1      0.98%     98.04% |           1      0.98%     99.02% |           1      0.98%    100.00%
system.ruby.L1Cache_Controller.MM.Store::total          102                      
system.ruby.L1Cache_Controller.MM.Inv    |       12136     31.87%     31.87% |        4281     11.24%     43.12% |        4074     10.70%     53.82% |        1981      5.20%     59.02% |        7139     18.75%     77.77% |        3220      8.46%     86.23% |         542      1.42%     87.65% |        3486      9.16%     96.81% |        1215      3.19%    100.00%
system.ruby.L1Cache_Controller.MM.Inv::total        38074                      
system.ruby.L1Cache_Controller.MM.L1_Replacement |     2272951     52.64%     52.64% |      256607      5.94%     58.58% |      255124      5.91%     64.49% |      256527      5.94%     70.43% |      251807      5.83%     76.26% |      256165      5.93%     82.19% |      257586      5.97%     88.16% |      254378      5.89%     94.05% |      257065      5.95%    100.00%
system.ruby.L1Cache_Controller.MM.L1_Replacement::total      4318210                      
system.ruby.L1Cache_Controller.MM.Fwd_GETX |           0      0.00%      0.00% |           3     13.04%     13.04% |           4     17.39%     30.43% |           3     13.04%     43.48% |           3     13.04%     56.52% |           3     13.04%     69.57% |           3     13.04%     82.61% |           3     13.04%     95.65% |           1      4.35%    100.00%
system.ruby.L1Cache_Controller.MM.Fwd_GETX::total           23                      
system.ruby.L1Cache_Controller.MM.Fwd_GETS |        3660     98.87%     98.87% |           6      0.16%     99.03% |           2      0.05%     99.08% |           7      0.19%     99.27% |           6      0.16%     99.43% |           4      0.11%     99.54% |           4      0.11%     99.65% |           7      0.19%     99.84% |           6      0.16%    100.00%
system.ruby.L1Cache_Controller.MM.Fwd_GETS::total         3702                      
system.ruby.L1Cache_Controller.IS.Data_Exclusive |       10020      0.45%      0.45% |      362958     16.26%     16.71% |      264570     11.86%     28.57% |      274415     12.30%     40.87% |      262636     11.77%     52.63% |      263080     11.79%     64.42% |      270286     12.11%     76.53% |      261521     11.72%     88.25% |      262141     11.75%    100.00%
system.ruby.L1Cache_Controller.IS.Data_Exclusive::total      2231627                      
system.ruby.L1Cache_Controller.IS.DataS_fromL1 |          69      0.06%      0.06% |        5314      4.26%      4.31% |       42378     33.96%     38.27% |       29515     23.65%     61.92% |       10561      8.46%     70.39% |       12680     10.16%     80.55% |       16909     13.55%     94.10% |        1652      1.32%     95.42% |        5713      4.58%    100.00%
system.ruby.L1Cache_Controller.IS.DataS_fromL1::total       124791                      
system.ruby.L1Cache_Controller.IS.Data_all_Acks |          16      0.00%      0.00% |       29208      3.57%      3.57% |       88845     10.87%     14.44% |       91161     11.15%     25.59% |      122313     14.96%     40.55% |      120229     14.71%     55.26% |      107541     13.15%     68.41% |      131262     16.05%     84.47% |      127004     15.53%    100.00%
system.ruby.L1Cache_Controller.IS.Data_all_Acks::total       817579                      
system.ruby.L1Cache_Controller.IM.Data   |           1    100.00%    100.00% |           0      0.00%    100.00% |           0      0.00%    100.00% |           0      0.00%    100.00% |           0      0.00%    100.00% |           0      0.00%    100.00% |           0      0.00%    100.00% |           0      0.00%    100.00% |           0      0.00%    100.00%
system.ruby.L1Cache_Controller.IM.Data::total            1                      
system.ruby.L1Cache_Controller.IM.Data_all_Acks |     2288406    100.00%    100.00% |          12      0.00%    100.00% |          12      0.00%    100.00% |          14      0.00%    100.00% |          14      0.00%    100.00% |          12      0.00%    100.00% |          12      0.00%    100.00% |          14      0.00%    100.00% |          14      0.00%    100.00%
system.ruby.L1Cache_Controller.IM.Data_all_Acks::total      2288510                      
system.ruby.L1Cache_Controller.SM.Ack    |         148     94.87%     94.87% |           1      0.64%     95.51% |           1      0.64%     96.15% |           1      0.64%     96.79% |           1      0.64%     97.44% |           1      0.64%     98.08% |           1      0.64%     98.72% |           1      0.64%     99.36% |           1      0.64%    100.00%
system.ruby.L1Cache_Controller.SM.Ack::total          156                      
system.ruby.L1Cache_Controller.SM.Ack_all |          74     90.24%     90.24% |           1      1.22%     91.46% |           1      1.22%     92.68% |           1      1.22%     93.90% |           1      1.22%     95.12% |           1      1.22%     96.34% |           1      1.22%     97.56% |           1      1.22%     98.78% |           1      1.22%    100.00%
system.ruby.L1Cache_Controller.SM.Ack_all::total           82                      
system.ruby.L1Cache_Controller.M_I.Load  |           0      0.00%      0.00% |          73     46.50%     46.50% |          37     23.57%     70.06% |           3      1.91%     71.97% |          14      8.92%     80.89% |           8      5.10%     85.99% |           2      1.27%     87.26% |          12      7.64%     94.90% |           8      5.10%    100.00%
system.ruby.L1Cache_Controller.M_I.Load::total          157                      
system.ruby.L1Cache_Controller.M_I.WB_Ack |     2280023     52.71%     52.71% |      256669      5.93%     58.64% |      255166      5.90%     64.54% |      256567      5.93%     70.47% |      251847      5.82%     76.30% |      256214      5.92%     82.22% |      257635      5.96%     88.17% |      254418      5.88%     94.06% |      257102      5.94%    100.00%
system.ruby.L1Cache_Controller.M_I.WB_Ack::total      4325641                      
system.ruby.L1Cache_Controller.S_IL0.L0_Invalidate_Own |           8      0.00%      0.00% |       57147      6.01%      6.01% |      127959     13.46%     19.47% |      126335     13.29%     32.76% |      128816     13.55%     46.31% |      128825     13.55%     59.87% |      123838     13.03%     72.89% |      128831     13.55%     86.45% |      128830     13.55%    100.00%
system.ruby.L1Cache_Controller.S_IL0.L0_Invalidate_Own::total       950589                      
system.ruby.L1Cache_Controller.S_IL0.L0_Invalidate_Else |           3      0.84%      0.84% |          40     11.17%     12.01% |          45     12.57%     24.58% |          45     12.57%     37.15% |          46     12.85%     50.00% |          45     12.57%     62.57% |          43     12.01%     74.58% |          45     12.57%     87.15% |          46     12.85%    100.00%
system.ruby.L1Cache_Controller.S_IL0.L0_Invalidate_Else::total          358                      
system.ruby.L1Cache_Controller.S_IL0.L0_Ack |          11      0.00%      0.00% |       57187      6.01%      6.01% |      128004     13.46%     19.48% |      126380     13.29%     32.77% |      128862     13.55%     46.32% |      128870     13.55%     59.87% |      123881     13.03%     72.90% |      128876     13.55%     86.45% |      128876     13.55%    100.00%
system.ruby.L1Cache_Controller.S_IL0.L0_Ack::total       950947                      
system.ruby.L1Cache_Controller.E_IL0.L0_DataAck |        1528     21.21%     21.21% |         684      9.49%     30.71% |         968     13.44%     44.14% |         684      9.49%     53.64% |         680      9.44%     63.08% |         674      9.36%     72.43% |         617      8.56%     81.00% |         690      9.58%     90.57% |         679      9.43%    100.00%
system.ruby.L1Cache_Controller.E_IL0.L0_DataAck::total         7204                      
system.ruby.L1Cache_Controller.E_IL0.L0_Invalidate_Own |        8598     60.57%     60.57% |         734      5.17%     65.74% |         649      4.57%     70.31% |         714      5.03%     75.34% |         709      4.99%     80.34% |         717      5.05%     85.39% |         659      4.64%     90.03% |         709      4.99%     95.03% |         706      4.97%    100.00%
system.ruby.L1Cache_Controller.E_IL0.L0_Invalidate_Own::total        14195                      
system.ruby.L1Cache_Controller.E_IL0.L0_Invalidate_Else |          21      0.02%      0.02% |       99077     80.75%     80.76% |        2103      1.71%     82.48% |       12486     10.18%     92.65% |         112      0.09%     92.74% |          40      0.03%     92.78% |        8588      7.00%     99.78% |          49      0.04%     99.82% |         227      0.18%    100.00%
system.ruby.L1Cache_Controller.E_IL0.L0_Invalidate_Else::total       122703                      
system.ruby.L1Cache_Controller.E_IL0.L0_Ack |        7091      5.47%      5.47% |       99127     76.43%     81.90% |        1784      1.38%     83.27% |       12516      9.65%     92.92% |         141      0.11%     93.03% |          83      0.06%     93.10% |        8630      6.65%     99.75% |          68      0.05%     99.80% |         254      0.20%    100.00%
system.ruby.L1Cache_Controller.E_IL0.L0_Ack::total       129694                      
system.ruby.L1Cache_Controller.M_IL0.L0_DataAck |       17189     90.82%     90.82% |         242      1.28%     92.10% |         261      1.38%     93.47% |         190      1.00%     94.48% |         174      0.92%     95.40% |         197      1.04%     96.44% |         129      0.68%     97.12% |         377      1.99%     99.11% |         168      0.89%    100.00%
system.ruby.L1Cache_Controller.M_IL0.L0_DataAck::total        18927                      
system.ruby.L1Cache_Controller.M_IL0.L0_Invalidate_Own |       16418     93.82%     93.82% |         123      0.70%     94.52% |         202      1.15%     95.67% |         137      0.78%     96.46% |         113      0.65%     97.10% |         121      0.69%     97.79% |         109      0.62%     98.42% |         168      0.96%     99.38% |         109      0.62%    100.00%
system.ruby.L1Cache_Controller.M_IL0.L0_Invalidate_Own::total        17500                      
system.ruby.L1Cache_Controller.M_IL0.L0_Invalidate_Else |         835     55.85%     55.85% |         119      7.96%     63.81% |          59      3.95%     67.76% |          54      3.61%     71.37% |          62      4.15%     75.52% |          76      5.08%     80.60% |          22      1.47%     82.07% |         209     13.98%     96.05% |          59      3.95%    100.00%
system.ruby.L1Cache_Controller.M_IL0.L0_Invalidate_Else::total         1495                      
system.ruby.L1Cache_Controller.M_IL0.L0_Ack |          64     95.52%     95.52% |           0      0.00%     95.52% |           0      0.00%     95.52% |           0      0.00%     95.52% |           1      1.49%     97.01% |           0      0.00%     97.01% |           2      2.99%    100.00% |           0      0.00%    100.00% |           0      0.00%    100.00%
system.ruby.L1Cache_Controller.M_IL0.L0_Ack::total           67                      
system.ruby.L2Cache_Controller.L1_GETS        3422114      0.00%      0.00%
system.ruby.L2Cache_Controller.L1_GETX        2288518      0.00%      0.00%
system.ruby.L2Cache_Controller.L1_UPGRADE           81      0.00%      0.00%
system.ruby.L2Cache_Controller.L1_PUTX        4325641      0.00%      0.00%
system.ruby.L2Cache_Controller.L2_Replacement       616119      0.00%      0.00%
system.ruby.L2Cache_Controller.L2_Replacement_clean       520156      0.00%      0.00%
system.ruby.L2Cache_Controller.Mem_Data       1737599      0.00%      0.00%
system.ruby.L2Cache_Controller.Mem_Ack        1136275      0.00%      0.00%
system.ruby.L2Cache_Controller.WB_Data         162161      0.00%      0.00%
system.ruby.L2Cache_Controller.WB_Data_clean          704      0.00%      0.00%
system.ruby.L2Cache_Controller.Ack                498      0.00%      0.00%
system.ruby.L2Cache_Controller.Ack_all            295      0.00%      0.00%
system.ruby.L2Cache_Controller.Unblock         124791      0.00%      0.00%
system.ruby.L2Cache_Controller.Exclusive_Unblock      4520219      0.00%      0.00%
system.ruby.L2Cache_Controller.NP.L1_GETS       324157      0.00%      0.00%
system.ruby.L2Cache_Controller.NP.L1_GETX      1413442      0.00%      0.00%
system.ruby.L2Cache_Controller.SS.L1_GETS       783239      0.00%      0.00%
system.ruby.L2Cache_Controller.SS.L1_GETX            1      0.00%      0.00%
system.ruby.L2Cache_Controller.SS.L1_UPGRADE           81      0.00%      0.00%
system.ruby.L2Cache_Controller.SS.L2_Replacement           49      0.00%      0.00%
system.ruby.L2Cache_Controller.SS.L2_Replacement_clean           30      0.00%      0.00%
system.ruby.L2Cache_Controller.M.L1_GETS      1915398      0.00%      0.00%
system.ruby.L2Cache_Controller.M.L1_GETX       875043      0.00%      0.00%
system.ruby.L2Cache_Controller.M.L2_Replacement       616062      0.00%      0.00%
system.ruby.L2Cache_Controller.M.L2_Replacement_clean       481844      0.00%      0.00%
system.ruby.L2Cache_Controller.MT.L1_GETS       124791      0.00%      0.00%
system.ruby.L2Cache_Controller.MT.L1_GETX           25      0.00%      0.00%
system.ruby.L2Cache_Controller.MT.L1_PUTX      4325641      0.00%      0.00%
system.ruby.L2Cache_Controller.MT.L2_Replacement            8      0.00%      0.00%
system.ruby.L2Cache_Controller.MT.L2_Replacement_clean        38282      0.00%      0.00%
system.ruby.L2Cache_Controller.M_I.L1_GETS            3      0.00%      0.00%
system.ruby.L2Cache_Controller.M_I.Mem_Ack      1136275      0.00%      0.00%
system.ruby.L2Cache_Controller.MT_I.WB_Data            8      0.00%      0.00%
system.ruby.L2Cache_Controller.MCT_I.WB_Data        37363      0.00%      0.00%
system.ruby.L2Cache_Controller.MCT_I.WB_Data_clean          703      0.00%      0.00%
system.ruby.L2Cache_Controller.MCT_I.Ack_all          216      0.00%      0.00%
system.ruby.L2Cache_Controller.I_I.L1_GETS            1      0.00%      0.00%
system.ruby.L2Cache_Controller.I_I.Ack            211      0.00%      0.00%
system.ruby.L2Cache_Controller.I_I.Ack_all           30      0.00%      0.00%
system.ruby.L2Cache_Controller.S_I.Ack            287      0.00%      0.00%
system.ruby.L2Cache_Controller.S_I.Ack_all           49      0.00%      0.00%
system.ruby.L2Cache_Controller.ISS.L1_GETS         7928      0.00%      0.00%
system.ruby.L2Cache_Controller.ISS.Mem_Data       316229      0.00%      0.00%
system.ruby.L2Cache_Controller.IS.L1_GETS        18484      0.00%      0.00%
system.ruby.L2Cache_Controller.IS.Mem_Data         7928      0.00%      0.00%
system.ruby.L2Cache_Controller.IM.L1_GETS            1      0.00%      0.00%
system.ruby.L2Cache_Controller.IM.L1_GETX            3      0.00%      0.00%
system.ruby.L2Cache_Controller.IM.Mem_Data      1413442      0.00%      0.00%
system.ruby.L2Cache_Controller.SS_MB.Exclusive_Unblock           82      0.00%      0.00%
system.ruby.L2Cache_Controller.MT_MB.L1_GETS        22181      0.00%      0.00%
system.ruby.L2Cache_Controller.MT_MB.L1_GETX            4      0.00%      0.00%
system.ruby.L2Cache_Controller.MT_MB.Exclusive_Unblock      4520137      0.00%      0.00%
system.ruby.L2Cache_Controller.MT_IIB.L1_GETS       223894      0.00%      0.00%
system.ruby.L2Cache_Controller.MT_IIB.WB_Data       124724      0.00%      0.00%
system.ruby.L2Cache_Controller.MT_IIB.WB_Data_clean            1      0.00%      0.00%
system.ruby.L2Cache_Controller.MT_IIB.Unblock           66      0.00%      0.00%
system.ruby.L2Cache_Controller.MT_IB.WB_Data           66      0.00%      0.00%
system.ruby.L2Cache_Controller.MT_SB.L1_GETS         2037      0.00%      0.00%
system.ruby.L2Cache_Controller.MT_SB.Unblock       124725      0.00%      0.00%

---------- End Simulation Statistics   ----------
