
---------- Begin Simulation Statistics ----------
sim_seconds                                  5.675285                       # Number of seconds simulated
sim_ticks                                5675284728000                       # Number of ticks simulated
final_tick                               5675284728000                       # Number of ticks from beginning of simulation (restored from checkpoints and never reset)
sim_freq                                 1000000000000                       # Frequency of simulated ticks
host_inst_rate                                 127762                       # Simulator instruction rate (inst/s)
host_op_rate                                   357479                       # Simulator op (including micro ops) rate (op/s)
host_tick_rate                              213443992                       # Simulator tick rate (ticks/s)
host_mem_usage                                4047352                       # Number of bytes of host memory used
host_seconds                                 26589.11                       # Real time elapsed on the host
sim_insts                                  3397085729                       # Number of instructions simulated
sim_ops                                    9505052756                       # Number of ops (including micro ops) simulated
system.voltage_domain.voltage                       1                       # Voltage in Volts
system.clk_domain.clock                          1000                       # Clock period in ticks
system.mem_ctrls.bytes_read::ruby.dir_cntrl0    348630912                       # Number of bytes read from this memory
system.mem_ctrls.bytes_read::total          348630912                       # Number of bytes read from this memory
system.mem_ctrls.bytes_written::ruby.dir_cntrl0    199926464                       # Number of bytes written to this memory
system.mem_ctrls.bytes_written::total       199926464                       # Number of bytes written to this memory
system.mem_ctrls.num_reads::ruby.dir_cntrl0      5447358                       # Number of read requests responded to by this memory
system.mem_ctrls.num_reads::total             5447358                       # Number of read requests responded to by this memory
system.mem_ctrls.num_writes::ruby.dir_cntrl0      3123851                       # Number of write requests responded to by this memory
system.mem_ctrls.num_writes::total            3123851                       # Number of write requests responded to by this memory
system.mem_ctrls.bw_read::ruby.dir_cntrl0     61429678                       # Total read bandwidth from this memory (bytes/s)
system.mem_ctrls.bw_read::total              61429678                       # Total read bandwidth from this memory (bytes/s)
system.mem_ctrls.bw_write::ruby.dir_cntrl0     35227565                       # Write bandwidth from this memory (bytes/s)
system.mem_ctrls.bw_write::total             35227565                       # Write bandwidth from this memory (bytes/s)
system.mem_ctrls.bw_total::ruby.dir_cntrl0     96657243                       # Total bandwidth to/from this memory (bytes/s)
system.mem_ctrls.bw_total::total             96657243                       # Total bandwidth to/from this memory (bytes/s)
system.mem_ctrls.memReq                       8571209                       # Total number of memory requests
system.mem_ctrls.memRead                      5447358                       # Number of memory reads
system.mem_ctrls.memWrite                     3123851                       # Number of memory writes
system.mem_ctrls.memRefresh                  68244705                       # Number of memory refreshes
system.mem_ctrls.memWaitCycles               28813650                       # Delay stalled at the head of the bank queue
system.mem_ctrls.memInputQ                       3713                       # Delay in the input queue
system.mem_ctrls.memBankQ                      165081                       # Delay behind the head of the bank queue
system.mem_ctrls.totalStalls                 28982444                       # Total number of stall cycles
system.mem_ctrls.stallsPerReq                3.381372                       # Expected number of stall cycles per request
system.mem_ctrls.memBankBusy                 28567299                       # memory stalls due to busy bank
system.mem_ctrls.memBusBusy                    180391                       # memory stalls due to busy bus
system.mem_ctrls.memReadWriteBusy                5824                       # memory stalls due to read write turnaround
system.mem_ctrls.memDataBusBusy                  8091                       # memory stalls due to read read turnaround
system.mem_ctrls.memArbWait                     52045                       # memory stalls due to arbitration
system.mem_ctrls.memBankCount            |      267600      3.12%      3.12% |      267607      3.12%      6.24% |      268101      3.13%      9.37% |      267861      3.13%     12.50% |      267388      3.12%     15.62% |      267679      3.12%     18.74% |      267177      3.12%     21.86% |      268385      3.13%     24.99% |      267145      3.12%     28.11% |      266822      3.11%     31.22% |      267686      3.12%     34.34% |      267434      3.12%     37.46% |      268166      3.13%     40.59% |      267771      3.12%     43.71% |      267218      3.12%     46.83% |      267519      3.12%     49.95% |      268615      3.13%     53.09% |      268792      3.14%     56.22% |      267530      3.12%     59.34% |      267535      3.12%     62.47% |      267431      3.12%     65.59% |      268203      3.13%     68.71% |      268721      3.14%     71.85% |      268979      3.14%     74.99% |      268367      3.13%     78.12% |      267367      3.12%     81.24% |      267766      3.12%     84.36% |      268407      3.13%     87.49% |      267596      3.12%     90.62% |      267736      3.12%     93.74% |      268292      3.13%     96.87% |      268313      3.13%    100.00% # Number of accesses per bank
system.mem_ctrls.memBankCount::total          8571209                       # Number of accesses per bank
system.cpu_voltage_domain.voltage                   1                       # Voltage in Volts
system.cpu_clk_domain.clock                       500                       # Clock period in ticks
system.cpu0.apic_clk_domain.clock                8000                       # Clock period in ticks
system.cpu0.workload.num_syscalls                 180                       # Number of system calls
system.cpu0.numCycles                     11350569456                       # number of cpu cycles simulated
system.cpu0.numWorkItemsStarted                     0                       # number of work items this cpu started
system.cpu0.numWorkItemsCompleted                   0                       # number of work items this cpu completed
system.cpu0.committedInsts                 3164776801                       # Number of instructions committed
system.cpu0.committedOps                   9040459976                       # Number of ops (including micro ops) committed
system.cpu0.num_int_alu_accesses           8528166703                       # Number of integer alu accesses
system.cpu0.num_fp_alu_accesses             216644550                       # Number of float alu accesses
system.cpu0.num_func_calls                  304262268                       # number of times a function call or return occured
system.cpu0.num_conditional_control_insts    698947572                       # number of instructions that are conditional controls
system.cpu0.num_int_insts                  8528166703                       # number of integer instructions
system.cpu0.num_fp_insts                    216644550                       # number of float instructions
system.cpu0.num_int_register_reads        17967195541                       # number of times the integer registers were read
system.cpu0.num_int_register_writes        8495421066                       # number of times the integer registers were written
system.cpu0.num_fp_register_reads           348151590                       # number of times the floating registers were read
system.cpu0.num_fp_register_writes          170275978                       # number of times the floating registers were written
system.cpu0.num_cc_register_reads          7222983121                       # number of times the CC registers were read
system.cpu0.num_cc_register_writes         2707163796                       # number of times the CC registers were written
system.cpu0.num_mem_refs                   1378893811                       # number of memory refs
system.cpu0.num_load_insts                  837691703                       # Number of load instructions
system.cpu0.num_store_insts                 541202108                       # Number of store instructions
system.cpu0.num_idle_cycles                  0.002000                       # Number of idle cycles
system.cpu0.num_busy_cycles              11350569455.997999                       # Number of busy cycles
system.cpu0.not_idle_fraction                1.000000                       # Percentage of non-idle cycles
system.cpu0.idle_fraction                    0.000000                       # Percentage of idle cycles
system.cpu0.Branches                       1149185079                       # Number of branches fetched
system.cpu0.op_class::No_OpClass            177947951      1.97%      1.97% # Class of executed instruction
system.cpu0.op_class::IntAlu               6553389078     72.49%     74.46% # Class of executed instruction
system.cpu0.op_class::IntMult                     389      0.00%     74.46% # Class of executed instruction
system.cpu0.op_class::IntDiv                759953526      8.41%     82.86% # Class of executed instruction
system.cpu0.op_class::FloatAdd              170275221      1.88%     84.75% # Class of executed instruction
system.cpu0.op_class::FloatCmp                      0      0.00%     84.75% # Class of executed instruction
system.cpu0.op_class::FloatCvt                      0      0.00%     84.75% # Class of executed instruction
system.cpu0.op_class::FloatMult                     0      0.00%     84.75% # Class of executed instruction
system.cpu0.op_class::FloatDiv                      0      0.00%     84.75% # Class of executed instruction
system.cpu0.op_class::FloatSqrt                     0      0.00%     84.75% # Class of executed instruction
system.cpu0.op_class::SimdAdd                       0      0.00%     84.75% # Class of executed instruction
system.cpu0.op_class::SimdAddAcc                    0      0.00%     84.75% # Class of executed instruction
system.cpu0.op_class::SimdAlu                       0      0.00%     84.75% # Class of executed instruction
system.cpu0.op_class::SimdCmp                       0      0.00%     84.75% # Class of executed instruction
system.cpu0.op_class::SimdCvt                       0      0.00%     84.75% # Class of executed instruction
system.cpu0.op_class::SimdMisc                      0      0.00%     84.75% # Class of executed instruction
system.cpu0.op_class::SimdMult                      0      0.00%     84.75% # Class of executed instruction
system.cpu0.op_class::SimdMultAcc                   0      0.00%     84.75% # Class of executed instruction
system.cpu0.op_class::SimdShift                     0      0.00%     84.75% # Class of executed instruction
system.cpu0.op_class::SimdShiftAcc                  0      0.00%     84.75% # Class of executed instruction
system.cpu0.op_class::SimdSqrt                      0      0.00%     84.75% # Class of executed instruction
system.cpu0.op_class::SimdFloatAdd                  0      0.00%     84.75% # Class of executed instruction
system.cpu0.op_class::SimdFloatAlu                  0      0.00%     84.75% # Class of executed instruction
system.cpu0.op_class::SimdFloatCmp                  0      0.00%     84.75% # Class of executed instruction
system.cpu0.op_class::SimdFloatCvt                  0      0.00%     84.75% # Class of executed instruction
system.cpu0.op_class::SimdFloatDiv                  0      0.00%     84.75% # Class of executed instruction
system.cpu0.op_class::SimdFloatMisc                 0      0.00%     84.75% # Class of executed instruction
system.cpu0.op_class::SimdFloatMult                 0      0.00%     84.75% # Class of executed instruction
system.cpu0.op_class::SimdFloatMultAcc              0      0.00%     84.75% # Class of executed instruction
system.cpu0.op_class::SimdFloatSqrt                 0      0.00%     84.75% # Class of executed instruction
system.cpu0.op_class::MemRead               837691703      9.27%     94.01% # Class of executed instruction
system.cpu0.op_class::MemWrite              541202108      5.99%    100.00% # Class of executed instruction
system.cpu0.op_class::IprAccess                     0      0.00%    100.00% # Class of executed instruction
system.cpu0.op_class::InstPrefetch                  0      0.00%    100.00% # Class of executed instruction
system.cpu0.op_class::total                9040459976                       # Class of executed instruction
system.cpu1.apic_clk_domain.clock                8000                       # Clock period in ticks
system.cpu1.numCycles                     11350315242                       # number of cpu cycles simulated
system.cpu1.numWorkItemsStarted                     0                       # number of work items this cpu started
system.cpu1.numWorkItemsCompleted                   0                       # number of work items this cpu completed
system.cpu1.committedInsts                   58077232                       # Number of instructions committed
system.cpu1.committedOps                    116148195                       # Number of ops (including micro ops) committed
system.cpu1.num_int_alu_accesses             87175319                       # Number of integer alu accesses
system.cpu1.num_fp_alu_accesses              56894279                       # Number of float alu accesses
system.cpu1.num_func_calls                     161815                       # number of times a function call or return occured
system.cpu1.num_conditional_control_insts      7134452                       # number of instructions that are conditional controls
system.cpu1.num_int_insts                    87175319                       # number of integer instructions
system.cpu1.num_fp_insts                     56894279                       # number of float instructions
system.cpu1.num_int_register_reads          153196448                       # number of times the integer registers were read
system.cpu1.num_int_register_writes          52032168                       # number of times the integer registers were written
system.cpu1.num_fp_register_reads            86190677                       # number of times the floating registers were read
system.cpu1.num_fp_register_writes           56813392                       # number of times the floating registers were written
system.cpu1.num_cc_register_reads            42887640                       # number of times the CC registers were read
system.cpu1.num_cc_register_writes           42862530                       # number of times the CC registers were written
system.cpu1.num_mem_refs                     28338623                       # number of memory refs
system.cpu1.num_load_insts                   28176742                       # Number of load instructions
system.cpu1.num_store_insts                    161881                       # Number of store instructions
system.cpu1.num_idle_cycles              11074496479.536919                       # Number of idle cycles
system.cpu1.num_busy_cycles              275818762.463083                       # Number of busy cycles
system.cpu1.not_idle_fraction                0.024301                       # Percentage of non-idle cycles
system.cpu1.idle_fraction                    0.975699                       # Percentage of idle cycles
system.cpu1.Branches                          7383422                       # Number of branches fetched
system.cpu1.op_class::No_OpClass                    2      0.00%      0.00% # Class of executed instruction
system.cpu1.op_class::IntAlu                 58594024     50.45%     50.45% # Class of executed instruction
system.cpu1.op_class::IntMult                  242657      0.21%     50.66% # Class of executed instruction
system.cpu1.op_class::IntDiv                       14      0.00%     50.66% # Class of executed instruction
system.cpu1.op_class::FloatAdd               28972875     24.94%     75.60% # Class of executed instruction
system.cpu1.op_class::FloatCmp                      0      0.00%     75.60% # Class of executed instruction
system.cpu1.op_class::FloatCvt                      0      0.00%     75.60% # Class of executed instruction
system.cpu1.op_class::FloatMult                     0      0.00%     75.60% # Class of executed instruction
system.cpu1.op_class::FloatDiv                      0      0.00%     75.60% # Class of executed instruction
system.cpu1.op_class::FloatSqrt                     0      0.00%     75.60% # Class of executed instruction
system.cpu1.op_class::SimdAdd                       0      0.00%     75.60% # Class of executed instruction
system.cpu1.op_class::SimdAddAcc                    0      0.00%     75.60% # Class of executed instruction
system.cpu1.op_class::SimdAlu                       0      0.00%     75.60% # Class of executed instruction
system.cpu1.op_class::SimdCmp                       0      0.00%     75.60% # Class of executed instruction
system.cpu1.op_class::SimdCvt                       0      0.00%     75.60% # Class of executed instruction
system.cpu1.op_class::SimdMisc                      0      0.00%     75.60% # Class of executed instruction
system.cpu1.op_class::SimdMult                      0      0.00%     75.60% # Class of executed instruction
system.cpu1.op_class::SimdMultAcc                   0      0.00%     75.60% # Class of executed instruction
system.cpu1.op_class::SimdShift                     0      0.00%     75.60% # Class of executed instruction
system.cpu1.op_class::SimdShiftAcc                  0      0.00%     75.60% # Class of executed instruction
system.cpu1.op_class::SimdSqrt                      0      0.00%     75.60% # Class of executed instruction
system.cpu1.op_class::SimdFloatAdd                  0      0.00%     75.60% # Class of executed instruction
system.cpu1.op_class::SimdFloatAlu                  0      0.00%     75.60% # Class of executed instruction
system.cpu1.op_class::SimdFloatCmp                  0      0.00%     75.60% # Class of executed instruction
system.cpu1.op_class::SimdFloatCvt                  0      0.00%     75.60% # Class of executed instruction
system.cpu1.op_class::SimdFloatDiv                  0      0.00%     75.60% # Class of executed instruction
system.cpu1.op_class::SimdFloatMisc                 0      0.00%     75.60% # Class of executed instruction
system.cpu1.op_class::SimdFloatMult                 0      0.00%     75.60% # Class of executed instruction
system.cpu1.op_class::SimdFloatMultAcc              0      0.00%     75.60% # Class of executed instruction
system.cpu1.op_class::SimdFloatSqrt                 0      0.00%     75.60% # Class of executed instruction
system.cpu1.op_class::MemRead                28176742     24.26%     99.86% # Class of executed instruction
system.cpu1.op_class::MemWrite                 161881      0.14%    100.00% # Class of executed instruction
system.cpu1.op_class::IprAccess                     0      0.00%    100.00% # Class of executed instruction
system.cpu1.op_class::InstPrefetch                  0      0.00%    100.00% # Class of executed instruction
system.cpu1.op_class::total                 116148195                       # Class of executed instruction
system.cpu2.apic_clk_domain.clock                8000                       # Clock period in ticks
system.cpu2.numCycles                     11350315262                       # number of cpu cycles simulated
system.cpu2.numWorkItemsStarted                     0                       # number of work items this cpu started
system.cpu2.numWorkItemsCompleted                   0                       # number of work items this cpu completed
system.cpu2.committedInsts                   58077232                       # Number of instructions committed
system.cpu2.committedOps                    116148195                       # Number of ops (including micro ops) committed
system.cpu2.num_int_alu_accesses             87175319                       # Number of integer alu accesses
system.cpu2.num_fp_alu_accesses              56894279                       # Number of float alu accesses
system.cpu2.num_func_calls                     161815                       # number of times a function call or return occured
system.cpu2.num_conditional_control_insts      7134452                       # number of instructions that are conditional controls
system.cpu2.num_int_insts                    87175319                       # number of integer instructions
system.cpu2.num_fp_insts                     56894279                       # number of float instructions
system.cpu2.num_int_register_reads          153196448                       # number of times the integer registers were read
system.cpu2.num_int_register_writes          52032168                       # number of times the integer registers were written
system.cpu2.num_fp_register_reads            86190677                       # number of times the floating registers were read
system.cpu2.num_fp_register_writes           56813392                       # number of times the floating registers were written
system.cpu2.num_cc_register_reads            42887640                       # number of times the CC registers were read
system.cpu2.num_cc_register_writes           42862530                       # number of times the CC registers were written
system.cpu2.num_mem_refs                     28338623                       # number of memory refs
system.cpu2.num_load_insts                   28176742                       # Number of load instructions
system.cpu2.num_store_insts                    161881                       # Number of store instructions
system.cpu2.num_idle_cycles              11074496999.039709                       # Number of idle cycles
system.cpu2.num_busy_cycles              275818262.960291                       # Number of busy cycles
system.cpu2.not_idle_fraction                0.024300                       # Percentage of non-idle cycles
system.cpu2.idle_fraction                    0.975700                       # Percentage of idle cycles
system.cpu2.Branches                          7383422                       # Number of branches fetched
system.cpu2.op_class::No_OpClass                    2      0.00%      0.00% # Class of executed instruction
system.cpu2.op_class::IntAlu                 58594024     50.45%     50.45% # Class of executed instruction
system.cpu2.op_class::IntMult                  242657      0.21%     50.66% # Class of executed instruction
system.cpu2.op_class::IntDiv                       14      0.00%     50.66% # Class of executed instruction
system.cpu2.op_class::FloatAdd               28972875     24.94%     75.60% # Class of executed instruction
system.cpu2.op_class::FloatCmp                      0      0.00%     75.60% # Class of executed instruction
system.cpu2.op_class::FloatCvt                      0      0.00%     75.60% # Class of executed instruction
system.cpu2.op_class::FloatMult                     0      0.00%     75.60% # Class of executed instruction
system.cpu2.op_class::FloatDiv                      0      0.00%     75.60% # Class of executed instruction
system.cpu2.op_class::FloatSqrt                     0      0.00%     75.60% # Class of executed instruction
system.cpu2.op_class::SimdAdd                       0      0.00%     75.60% # Class of executed instruction
system.cpu2.op_class::SimdAddAcc                    0      0.00%     75.60% # Class of executed instruction
system.cpu2.op_class::SimdAlu                       0      0.00%     75.60% # Class of executed instruction
system.cpu2.op_class::SimdCmp                       0      0.00%     75.60% # Class of executed instruction
system.cpu2.op_class::SimdCvt                       0      0.00%     75.60% # Class of executed instruction
system.cpu2.op_class::SimdMisc                      0      0.00%     75.60% # Class of executed instruction
system.cpu2.op_class::SimdMult                      0      0.00%     75.60% # Class of executed instruction
system.cpu2.op_class::SimdMultAcc                   0      0.00%     75.60% # Class of executed instruction
system.cpu2.op_class::SimdShift                     0      0.00%     75.60% # Class of executed instruction
system.cpu2.op_class::SimdShiftAcc                  0      0.00%     75.60% # Class of executed instruction
system.cpu2.op_class::SimdSqrt                      0      0.00%     75.60% # Class of executed instruction
system.cpu2.op_class::SimdFloatAdd                  0      0.00%     75.60% # Class of executed instruction
system.cpu2.op_class::SimdFloatAlu                  0      0.00%     75.60% # Class of executed instruction
system.cpu2.op_class::SimdFloatCmp                  0      0.00%     75.60% # Class of executed instruction
system.cpu2.op_class::SimdFloatCvt                  0      0.00%     75.60% # Class of executed instruction
system.cpu2.op_class::SimdFloatDiv                  0      0.00%     75.60% # Class of executed instruction
system.cpu2.op_class::SimdFloatMisc                 0      0.00%     75.60% # Class of executed instruction
system.cpu2.op_class::SimdFloatMult                 0      0.00%     75.60% # Class of executed instruction
system.cpu2.op_class::SimdFloatMultAcc              0      0.00%     75.60% # Class of executed instruction
system.cpu2.op_class::SimdFloatSqrt                 0      0.00%     75.60% # Class of executed instruction
system.cpu2.op_class::MemRead                28176742     24.26%     99.86% # Class of executed instruction
system.cpu2.op_class::MemWrite                 161881      0.14%    100.00% # Class of executed instruction
system.cpu2.op_class::IprAccess                     0      0.00%    100.00% # Class of executed instruction
system.cpu2.op_class::InstPrefetch                  0      0.00%    100.00% # Class of executed instruction
system.cpu2.op_class::total                 116148195                       # Class of executed instruction
system.cpu3.apic_clk_domain.clock                8000                       # Clock period in ticks
system.cpu3.numCycles                     11350315242                       # number of cpu cycles simulated
system.cpu3.numWorkItemsStarted                     0                       # number of work items this cpu started
system.cpu3.numWorkItemsCompleted                   0                       # number of work items this cpu completed
system.cpu3.committedInsts                   58077232                       # Number of instructions committed
system.cpu3.committedOps                    116148195                       # Number of ops (including micro ops) committed
system.cpu3.num_int_alu_accesses             87175319                       # Number of integer alu accesses
system.cpu3.num_fp_alu_accesses              56894279                       # Number of float alu accesses
system.cpu3.num_func_calls                     161815                       # number of times a function call or return occured
system.cpu3.num_conditional_control_insts      7134452                       # number of instructions that are conditional controls
system.cpu3.num_int_insts                    87175319                       # number of integer instructions
system.cpu3.num_fp_insts                     56894279                       # number of float instructions
system.cpu3.num_int_register_reads          153196448                       # number of times the integer registers were read
system.cpu3.num_int_register_writes          52032168                       # number of times the integer registers were written
system.cpu3.num_fp_register_reads            86190677                       # number of times the floating registers were read
system.cpu3.num_fp_register_writes           56813392                       # number of times the floating registers were written
system.cpu3.num_cc_register_reads            42887640                       # number of times the CC registers were read
system.cpu3.num_cc_register_writes           42862530                       # number of times the CC registers were written
system.cpu3.num_mem_refs                     28338623                       # number of memory refs
system.cpu3.num_load_insts                   28176742                       # Number of load instructions
system.cpu3.num_store_insts                    161881                       # Number of store instructions
system.cpu3.num_idle_cycles              11074497435.515507                       # Number of idle cycles
system.cpu3.num_busy_cycles              275817806.484494                       # Number of busy cycles
system.cpu3.not_idle_fraction                0.024300                       # Percentage of non-idle cycles
system.cpu3.idle_fraction                    0.975700                       # Percentage of idle cycles
system.cpu3.Branches                          7383422                       # Number of branches fetched
system.cpu3.op_class::No_OpClass                    2      0.00%      0.00% # Class of executed instruction
system.cpu3.op_class::IntAlu                 58594024     50.45%     50.45% # Class of executed instruction
system.cpu3.op_class::IntMult                  242657      0.21%     50.66% # Class of executed instruction
system.cpu3.op_class::IntDiv                       14      0.00%     50.66% # Class of executed instruction
system.cpu3.op_class::FloatAdd               28972875     24.94%     75.60% # Class of executed instruction
system.cpu3.op_class::FloatCmp                      0      0.00%     75.60% # Class of executed instruction
system.cpu3.op_class::FloatCvt                      0      0.00%     75.60% # Class of executed instruction
system.cpu3.op_class::FloatMult                     0      0.00%     75.60% # Class of executed instruction
system.cpu3.op_class::FloatDiv                      0      0.00%     75.60% # Class of executed instruction
system.cpu3.op_class::FloatSqrt                     0      0.00%     75.60% # Class of executed instruction
system.cpu3.op_class::SimdAdd                       0      0.00%     75.60% # Class of executed instruction
system.cpu3.op_class::SimdAddAcc                    0      0.00%     75.60% # Class of executed instruction
system.cpu3.op_class::SimdAlu                       0      0.00%     75.60% # Class of executed instruction
system.cpu3.op_class::SimdCmp                       0      0.00%     75.60% # Class of executed instruction
system.cpu3.op_class::SimdCvt                       0      0.00%     75.60% # Class of executed instruction
system.cpu3.op_class::SimdMisc                      0      0.00%     75.60% # Class of executed instruction
system.cpu3.op_class::SimdMult                      0      0.00%     75.60% # Class of executed instruction
system.cpu3.op_class::SimdMultAcc                   0      0.00%     75.60% # Class of executed instruction
system.cpu3.op_class::SimdShift                     0      0.00%     75.60% # Class of executed instruction
system.cpu3.op_class::SimdShiftAcc                  0      0.00%     75.60% # Class of executed instruction
system.cpu3.op_class::SimdSqrt                      0      0.00%     75.60% # Class of executed instruction
system.cpu3.op_class::SimdFloatAdd                  0      0.00%     75.60% # Class of executed instruction
system.cpu3.op_class::SimdFloatAlu                  0      0.00%     75.60% # Class of executed instruction
system.cpu3.op_class::SimdFloatCmp                  0      0.00%     75.60% # Class of executed instruction
system.cpu3.op_class::SimdFloatCvt                  0      0.00%     75.60% # Class of executed instruction
system.cpu3.op_class::SimdFloatDiv                  0      0.00%     75.60% # Class of executed instruction
system.cpu3.op_class::SimdFloatMisc                 0      0.00%     75.60% # Class of executed instruction
system.cpu3.op_class::SimdFloatMult                 0      0.00%     75.60% # Class of executed instruction
system.cpu3.op_class::SimdFloatMultAcc              0      0.00%     75.60% # Class of executed instruction
system.cpu3.op_class::SimdFloatSqrt                 0      0.00%     75.60% # Class of executed instruction
system.cpu3.op_class::MemRead                28176742     24.26%     99.86% # Class of executed instruction
system.cpu3.op_class::MemWrite                 161881      0.14%    100.00% # Class of executed instruction
system.cpu3.op_class::IprAccess                     0      0.00%    100.00% # Class of executed instruction
system.cpu3.op_class::InstPrefetch                  0      0.00%    100.00% # Class of executed instruction
system.cpu3.op_class::total                 116148195                       # Class of executed instruction
system.cpu4.apic_clk_domain.clock                8000                       # Clock period in ticks
system.cpu4.numCycles                     11350315242                       # number of cpu cycles simulated
system.cpu4.numWorkItemsStarted                     0                       # number of work items this cpu started
system.cpu4.numWorkItemsCompleted                   0                       # number of work items this cpu completed
system.cpu4.committedInsts                   58077232                       # Number of instructions committed
system.cpu4.committedOps                    116148195                       # Number of ops (including micro ops) committed
system.cpu4.num_int_alu_accesses             87175319                       # Number of integer alu accesses
system.cpu4.num_fp_alu_accesses              56894279                       # Number of float alu accesses
system.cpu4.num_func_calls                     161815                       # number of times a function call or return occured
system.cpu4.num_conditional_control_insts      7134452                       # number of instructions that are conditional controls
system.cpu4.num_int_insts                    87175319                       # number of integer instructions
system.cpu4.num_fp_insts                     56894279                       # number of float instructions
system.cpu4.num_int_register_reads          153196448                       # number of times the integer registers were read
system.cpu4.num_int_register_writes          52032168                       # number of times the integer registers were written
system.cpu4.num_fp_register_reads            86190677                       # number of times the floating registers were read
system.cpu4.num_fp_register_writes           56813392                       # number of times the floating registers were written
system.cpu4.num_cc_register_reads            42887640                       # number of times the CC registers were read
system.cpu4.num_cc_register_writes           42862530                       # number of times the CC registers were written
system.cpu4.num_mem_refs                     28338623                       # number of memory refs
system.cpu4.num_load_insts                   28176742                       # Number of load instructions
system.cpu4.num_store_insts                    161881                       # Number of store instructions
system.cpu4.num_idle_cycles              11074497865.505877                       # Number of idle cycles
system.cpu4.num_busy_cycles              275817376.494124                       # Number of busy cycles
system.cpu4.not_idle_fraction                0.024300                       # Percentage of non-idle cycles
system.cpu4.idle_fraction                    0.975700                       # Percentage of idle cycles
system.cpu4.Branches                          7383422                       # Number of branches fetched
system.cpu4.op_class::No_OpClass                    2      0.00%      0.00% # Class of executed instruction
system.cpu4.op_class::IntAlu                 58594024     50.45%     50.45% # Class of executed instruction
system.cpu4.op_class::IntMult                  242657      0.21%     50.66% # Class of executed instruction
system.cpu4.op_class::IntDiv                       14      0.00%     50.66% # Class of executed instruction
system.cpu4.op_class::FloatAdd               28972875     24.94%     75.60% # Class of executed instruction
system.cpu4.op_class::FloatCmp                      0      0.00%     75.60% # Class of executed instruction
system.cpu4.op_class::FloatCvt                      0      0.00%     75.60% # Class of executed instruction
system.cpu4.op_class::FloatMult                     0      0.00%     75.60% # Class of executed instruction
system.cpu4.op_class::FloatDiv                      0      0.00%     75.60% # Class of executed instruction
system.cpu4.op_class::FloatSqrt                     0      0.00%     75.60% # Class of executed instruction
system.cpu4.op_class::SimdAdd                       0      0.00%     75.60% # Class of executed instruction
system.cpu4.op_class::SimdAddAcc                    0      0.00%     75.60% # Class of executed instruction
system.cpu4.op_class::SimdAlu                       0      0.00%     75.60% # Class of executed instruction
system.cpu4.op_class::SimdCmp                       0      0.00%     75.60% # Class of executed instruction
system.cpu4.op_class::SimdCvt                       0      0.00%     75.60% # Class of executed instruction
system.cpu4.op_class::SimdMisc                      0      0.00%     75.60% # Class of executed instruction
system.cpu4.op_class::SimdMult                      0      0.00%     75.60% # Class of executed instruction
system.cpu4.op_class::SimdMultAcc                   0      0.00%     75.60% # Class of executed instruction
system.cpu4.op_class::SimdShift                     0      0.00%     75.60% # Class of executed instruction
system.cpu4.op_class::SimdShiftAcc                  0      0.00%     75.60% # Class of executed instruction
system.cpu4.op_class::SimdSqrt                      0      0.00%     75.60% # Class of executed instruction
system.cpu4.op_class::SimdFloatAdd                  0      0.00%     75.60% # Class of executed instruction
system.cpu4.op_class::SimdFloatAlu                  0      0.00%     75.60% # Class of executed instruction
system.cpu4.op_class::SimdFloatCmp                  0      0.00%     75.60% # Class of executed instruction
system.cpu4.op_class::SimdFloatCvt                  0      0.00%     75.60% # Class of executed instruction
system.cpu4.op_class::SimdFloatDiv                  0      0.00%     75.60% # Class of executed instruction
system.cpu4.op_class::SimdFloatMisc                 0      0.00%     75.60% # Class of executed instruction
system.cpu4.op_class::SimdFloatMult                 0      0.00%     75.60% # Class of executed instruction
system.cpu4.op_class::SimdFloatMultAcc              0      0.00%     75.60% # Class of executed instruction
system.cpu4.op_class::SimdFloatSqrt                 0      0.00%     75.60% # Class of executed instruction
system.cpu4.op_class::MemRead                28176742     24.26%     99.86% # Class of executed instruction
system.cpu4.op_class::MemWrite                 161881      0.14%    100.00% # Class of executed instruction
system.cpu4.op_class::IprAccess                     0      0.00%    100.00% # Class of executed instruction
system.cpu4.op_class::InstPrefetch                  0      0.00%    100.00% # Class of executed instruction
system.cpu4.op_class::total                 116148195                       # Class of executed instruction
system.ruby.clk_domain.clock                      500                       # Clock period in ticks
system.ruby.delayHist::bucket_size                 32                       # delay histogram for all message
system.ruby.delayHist::max_bucket                 319                       # delay histogram for all message
system.ruby.delayHist::samples               74601068                       # delay histogram for all message
system.ruby.delayHist::mean                  0.625394                       # delay histogram for all message
system.ruby.delayHist::stdev                 2.566541                       # delay histogram for all message
system.ruby.delayHist                    |    74548816     99.93%     99.93% |       51911      0.07%    100.00% |         338      0.00%    100.00% |           0      0.00%    100.00% |           2      0.00%    100.00% |           0      0.00%    100.00% |           0      0.00%    100.00% |           1      0.00%    100.00% |           0      0.00%    100.00% |           0      0.00%    100.00% # delay histogram for all message
system.ruby.delayHist::total                 74601068                       # delay histogram for all message
system.ruby.outstanding_req_hist::bucket_size            1                      
system.ruby.outstanding_req_hist::max_bucket            9                      
system.ruby.outstanding_req_hist::samples   5915898618                      
system.ruby.outstanding_req_hist::mean       1.000199                      
system.ruby.outstanding_req_hist::gmean      1.000138                      
system.ruby.outstanding_req_hist::stdev      0.014120                      
system.ruby.outstanding_req_hist         |           0      0.00%      0.00% |  5914718906     99.98%     99.98% |     1179712      0.02%    100.00% |           0      0.00%    100.00% |           0      0.00%    100.00% |           0      0.00%    100.00% |           0      0.00%    100.00% |           0      0.00%    100.00% |           0      0.00%    100.00% |           0      0.00%    100.00%
system.ruby.outstanding_req_hist::total    5915898618                      
system.ruby.latency_hist::bucket_size              32                      
system.ruby.latency_hist::max_bucket              319                      
system.ruby.latency_hist::samples          5915898618                      
system.ruby.latency_hist::mean               1.105451                      
system.ruby.latency_hist::gmean              1.007408                      
system.ruby.latency_hist::stdev              2.738646                      
system.ruby.latency_hist                 |  5908924932     99.88%     99.88% |      721054      0.01%     99.89% |     6196286      0.10%    100.00% |       56121      0.00%    100.00% |         207      0.00%    100.00% |           9      0.00%    100.00% |           9      0.00%    100.00% |           0      0.00%    100.00% |           0      0.00%    100.00% |           0      0.00%    100.00%
system.ruby.latency_hist::total            5915898618                      
system.ruby.hit_latency_hist::bucket_size           32                      
system.ruby.hit_latency_hist::max_bucket          319                      
system.ruby.hit_latency_hist::samples      5915898618                      
system.ruby.hit_latency_hist::mean           1.105451                      
system.ruby.hit_latency_hist::gmean          1.007408                      
system.ruby.hit_latency_hist::stdev          2.738646                      
system.ruby.hit_latency_hist             |  5908924932     99.88%     99.88% |      721054      0.01%     99.89% |     6196286      0.10%    100.00% |       56121      0.00%    100.00% |         207      0.00%    100.00% |           9      0.00%    100.00% |           9      0.00%    100.00% |           0      0.00%    100.00% |           0      0.00%    100.00% |           0      0.00%    100.00%
system.ruby.hit_latency_hist::total        5915898618                      
system.ruby.l0_cntrl0.Dcache.demand_hits   1374545245                       # Number of cache demand hits
system.ruby.l0_cntrl0.Dcache.demand_misses      4348630                       # Number of cache demand misses
system.ruby.l0_cntrl0.Dcache.demand_accesses   1378893875                       # Number of cache demand accesses
system.ruby.l0_cntrl0.Icache.demand_hits   4124438162                       # Number of cache demand hits
system.ruby.l0_cntrl0.Icache.demand_misses         9681                       # Number of cache demand misses
system.ruby.l0_cntrl0.Icache.demand_accesses   4124447843                       # Number of cache demand accesses
system.ruby.l0_cntrl0.Zcache.demand_hits    244163930                       # Number of cache demand hits
system.ruby.l0_cntrl0.Zcache.demand_misses      2751191                       # Number of cache demand misses
system.ruby.l0_cntrl0.Zcache.demand_accesses    246915121                       # Number of cache demand accesses
system.ruby.l0_cntrl1.Dcache.demand_hits     26787081                       # Number of cache demand hits
system.ruby.l0_cntrl1.Dcache.demand_misses      1846454                       # Number of cache demand misses
system.ruby.l0_cntrl1.Dcache.demand_accesses     28633535                       # Number of cache demand accesses
system.ruby.l0_cntrl1.Icache.demand_hits     74503499                       # Number of cache demand hits
system.ruby.l0_cntrl1.Icache.demand_misses         2191                       # Number of cache demand misses
system.ruby.l0_cntrl1.Icache.demand_accesses     74505690                       # Number of cache demand accesses
system.ruby.l0_cntrl1.Zcache.demand_hits       145860                       # Number of cache demand hits
system.ruby.l0_cntrl1.Zcache.demand_misses        11569                       # Number of cache demand misses
system.ruby.l0_cntrl1.Zcache.demand_accesses       157429                       # Number of cache demand accesses
system.ruby.l0_cntrl2.Dcache.demand_hits     26827841                       # Number of cache demand hits
system.ruby.l0_cntrl2.Dcache.demand_misses      1805694                       # Number of cache demand misses
system.ruby.l0_cntrl2.Dcache.demand_accesses     28633535                       # Number of cache demand accesses
system.ruby.l0_cntrl2.Icache.demand_hits     74503516                       # Number of cache demand hits
system.ruby.l0_cntrl2.Icache.demand_misses         2174                       # Number of cache demand misses
system.ruby.l0_cntrl2.Icache.demand_accesses     74505690                       # Number of cache demand accesses
system.ruby.l0_cntrl2.Zcache.demand_hits       146972                       # Number of cache demand hits
system.ruby.l0_cntrl2.Zcache.demand_misses        11837                       # Number of cache demand misses
system.ruby.l0_cntrl2.Zcache.demand_accesses       158809                       # Number of cache demand accesses
system.ruby.l0_cntrl3.Dcache.demand_hits     26823643                       # Number of cache demand hits
system.ruby.l0_cntrl3.Dcache.demand_misses      1809892                       # Number of cache demand misses
system.ruby.l0_cntrl3.Dcache.demand_accesses     28633535                       # Number of cache demand accesses
system.ruby.l0_cntrl3.Icache.demand_hits     74503611                       # Number of cache demand hits
system.ruby.l0_cntrl3.Icache.demand_misses         2079                       # Number of cache demand misses
system.ruby.l0_cntrl3.Icache.demand_accesses     74505690                       # Number of cache demand accesses
system.ruby.l0_cntrl3.Zcache.demand_hits       151691                       # Number of cache demand hits
system.ruby.l0_cntrl3.Zcache.demand_misses        12075                       # Number of cache demand misses
system.ruby.l0_cntrl3.Zcache.demand_accesses       163766                       # Number of cache demand accesses
system.ruby.l0_cntrl4.Dcache.demand_hits     26832343                       # Number of cache demand hits
system.ruby.l0_cntrl4.Dcache.demand_misses      1801192                       # Number of cache demand misses
system.ruby.l0_cntrl4.Dcache.demand_accesses     28633535                       # Number of cache demand accesses
system.ruby.l0_cntrl4.Icache.demand_hits     74503587                       # Number of cache demand hits
system.ruby.l0_cntrl4.Icache.demand_misses         2103                       # Number of cache demand misses
system.ruby.l0_cntrl4.Icache.demand_accesses     74505690                       # Number of cache demand accesses
system.ruby.l0_cntrl4.Zcache.demand_hits       150710                       # Number of cache demand hits
system.ruby.l0_cntrl4.Zcache.demand_misses        11987                       # Number of cache demand misses
system.ruby.l0_cntrl4.Zcache.demand_accesses       162697                       # Number of cache demand accesses
system.ruby.l1_cntrl0.cache.demand_hits           281                       # Number of cache demand hits
system.ruby.l1_cntrl0.cache.demand_misses      4358030                       # Number of cache demand misses
system.ruby.l1_cntrl0.cache.demand_accesses      4358311                       # Number of cache demand accesses
system.ruby.l1_cntrl0.zcache.demand_hits          150                       # Number of cache demand hits
system.ruby.l1_cntrl0.zcache.demand_misses      1058583                       # Number of cache demand misses
system.ruby.l1_cntrl0.zcache.demand_accesses      1058733                       # Number of cache demand accesses
system.ruby.l1_cntrl1.cache.demand_hits        196832                       # Number of cache demand hits
system.ruby.l1_cntrl1.cache.demand_misses      1651813                       # Number of cache demand misses
system.ruby.l1_cntrl1.cache.demand_accesses      1848645                       # Number of cache demand accesses
system.ruby.l1_cntrl1.zcache.demand_hits            0                       # Number of cache demand hits
system.ruby.l1_cntrl1.zcache.demand_misses            0                       # Number of cache demand misses
system.ruby.l1_cntrl1.zcache.demand_accesses            0                       # Number of cache demand accesses
system.ruby.l1_cntrl2.cache.demand_hits        149176                       # Number of cache demand hits
system.ruby.l1_cntrl2.cache.demand_misses      1658692                       # Number of cache demand misses
system.ruby.l1_cntrl2.cache.demand_accesses      1807868                       # Number of cache demand accesses
system.ruby.l1_cntrl2.zcache.demand_hits            0                       # Number of cache demand hits
system.ruby.l1_cntrl2.zcache.demand_misses            0                       # Number of cache demand misses
system.ruby.l1_cntrl2.zcache.demand_accesses            0                       # Number of cache demand accesses
system.ruby.l1_cntrl3.cache.demand_hits        157818                       # Number of cache demand hits
system.ruby.l1_cntrl3.cache.demand_misses      1654153                       # Number of cache demand misses
system.ruby.l1_cntrl3.cache.demand_accesses      1811971                       # Number of cache demand accesses
system.ruby.l1_cntrl3.zcache.demand_hits            0                       # Number of cache demand hits
system.ruby.l1_cntrl3.zcache.demand_misses            0                       # Number of cache demand misses
system.ruby.l1_cntrl3.zcache.demand_accesses            0                       # Number of cache demand accesses
system.ruby.l1_cntrl4.cache.demand_hits        145863                       # Number of cache demand hits
system.ruby.l1_cntrl4.cache.demand_misses      1657432                       # Number of cache demand misses
system.ruby.l1_cntrl4.cache.demand_accesses      1803295                       # Number of cache demand accesses
system.ruby.l1_cntrl4.zcache.demand_hits            0                       # Number of cache demand hits
system.ruby.l1_cntrl4.zcache.demand_misses            0                       # Number of cache demand misses
system.ruby.l1_cntrl4.zcache.demand_accesses            0                       # Number of cache demand accesses
system.ruby.l2_cntrl0.L2cache.demand_hits      4104287                       # Number of cache demand hits
system.ruby.l2_cntrl0.L2cache.demand_misses      6875833                       # Number of cache demand misses
system.ruby.l2_cntrl0.L2cache.demand_accesses     10980120                       # Number of cache demand accesses
system.ruby.l2_cntrl0.ZL2cache.demand_hits        26917                       # Number of cache demand hits
system.ruby.l2_cntrl0.ZL2cache.demand_misses      1042195                       # Number of cache demand misses
system.ruby.l2_cntrl0.ZL2cache.demand_accesses      1069112                       # Number of cache demand accesses
system.ruby.l2_cntrl0.fully_busy_cycles          1106                       # cycles for which number of transistions == max transitions
system.ruby.memctrl_clk_domain.clock             1500                       # Clock period in ticks
system.ruby.network.routers00.percent_links_utilized            0                      
system.ruby.network.routers01.percent_links_utilized            0                      
system.ruby.network.routers02.percent_links_utilized            0                      
system.ruby.network.routers03.percent_links_utilized            0                      
system.ruby.network.routers04.percent_links_utilized            0                      
system.ruby.network.routers05.percent_links_utilized     0.201544                      
system.ruby.network.routers05.msg_count.Control::0      4358030                      
system.ruby.network.routers05.msg_count.Request_Control::2        20745                      
system.ruby.network.routers05.msg_count.Response_Data::1      4358102                      
system.ruby.network.routers05.msg_count.Response_Control::1      4336544                      
system.ruby.network.routers05.msg_count.Response_Control::2      4358019                      
system.ruby.network.routers05.msg_count.Writeback_Data::0      4335940                      
system.ruby.network.routers05.msg_count.Writeback_Data::1        20596                      
system.ruby.network.routers05.msg_count.Writeback_Control::0          407                      
system.ruby.network.routers05.msg_bytes.Control::0     34864240                      
system.ruby.network.routers05.msg_bytes.Request_Control::2       165960                      
system.ruby.network.routers05.msg_bytes.Response_Data::1    313783344                      
system.ruby.network.routers05.msg_bytes.Response_Control::1     34692352                      
system.ruby.network.routers05.msg_bytes.Response_Control::2     34864152                      
system.ruby.network.routers05.msg_bytes.Writeback_Data::0    312187680                      
system.ruby.network.routers05.msg_bytes.Writeback_Data::1      1482912                      
system.ruby.network.routers05.msg_bytes.Writeback_Control::0         3256                      
system.ruby.network.routers06.percent_links_utilized     0.047197                      
system.ruby.network.routers06.msg_count.Control::0      1651813                      
system.ruby.network.routers06.msg_count.Request_Control::2       274897                      
system.ruby.network.routers06.msg_count.Response_Data::1      1742874                      
system.ruby.network.routers06.msg_count.Response_Control::1      1323905                      
system.ruby.network.routers06.msg_count.Response_Control::2      1149372                      
system.ruby.network.routers06.msg_count.Writeback_Data::0        28439                      
system.ruby.network.routers06.msg_count.Writeback_Data::1         2055                      
system.ruby.network.routers06.msg_count.Writeback_Control::0      1068151                      
system.ruby.network.routers06.msg_bytes.Control::0     13214504                      
system.ruby.network.routers06.msg_bytes.Request_Control::2      2199176                      
system.ruby.network.routers06.msg_bytes.Response_Data::1    125486928                      
system.ruby.network.routers06.msg_bytes.Response_Control::1     10591240                      
system.ruby.network.routers06.msg_bytes.Response_Control::2      9194976                      
system.ruby.network.routers06.msg_bytes.Writeback_Data::0      2047608                      
system.ruby.network.routers06.msg_bytes.Writeback_Data::1       147960                      
system.ruby.network.routers06.msg_bytes.Writeback_Control::0      8545208                      
system.ruby.network.routers07.percent_links_utilized     0.045640                      
system.ruby.network.routers07.msg_count.Control::0      1658692                      
system.ruby.network.routers07.msg_count.Request_Control::2       232003                      
system.ruby.network.routers07.msg_count.Response_Data::1      1667959                      
system.ruby.network.routers07.msg_count.Response_Control::1      1332769                      
system.ruby.network.routers07.msg_count.Response_Control::2      1150866                      
system.ruby.network.routers07.msg_count.Writeback_Data::0        28690                      
system.ruby.network.routers07.msg_count.Writeback_Data::1           61                      
system.ruby.network.routers07.msg_count.Writeback_Control::0      1076771                      
system.ruby.network.routers07.msg_bytes.Control::0     13269536                      
system.ruby.network.routers07.msg_bytes.Request_Control::2      1856024                      
system.ruby.network.routers07.msg_bytes.Response_Data::1    120093048                      
system.ruby.network.routers07.msg_bytes.Response_Control::1     10662152                      
system.ruby.network.routers07.msg_bytes.Response_Control::2      9206928                      
system.ruby.network.routers07.msg_bytes.Writeback_Data::0      2065680                      
system.ruby.network.routers07.msg_bytes.Writeback_Data::1         4392                      
system.ruby.network.routers07.msg_bytes.Writeback_Control::0      8614168                      
system.ruby.network.routers08.percent_links_utilized     0.045651                      
system.ruby.network.routers08.msg_count.Control::0      1654153                      
system.ruby.network.routers08.msg_count.Request_Control::2       237060                      
system.ruby.network.routers08.msg_count.Response_Data::1      1672738                      
system.ruby.network.routers08.msg_count.Response_Control::1      1327912                      
system.ruby.network.routers08.msg_count.Response_Control::2      1116957                      
system.ruby.network.routers08.msg_count.Writeback_Data::0        28906                      
system.ruby.network.routers08.msg_count.Writeback_Data::1          461                      
system.ruby.network.routers08.msg_count.Writeback_Control::0      1071700                      
system.ruby.network.routers08.msg_bytes.Control::0     13233224                      
system.ruby.network.routers08.msg_bytes.Request_Control::2      1896480                      
system.ruby.network.routers08.msg_bytes.Response_Data::1    120437136                      
system.ruby.network.routers08.msg_bytes.Response_Control::1     10623296                      
system.ruby.network.routers08.msg_bytes.Response_Control::2      8935656                      
system.ruby.network.routers08.msg_bytes.Writeback_Data::0      2081232                      
system.ruby.network.routers08.msg_bytes.Writeback_Data::1        33192                      
system.ruby.network.routers08.msg_bytes.Writeback_Control::0      8573600                      
system.ruby.network.routers09.percent_links_utilized     0.046427                      
system.ruby.network.routers09.msg_count.Control::0      1657432                      
system.ruby.network.routers09.msg_count.Request_Control::2       289213                      
system.ruby.network.routers09.msg_count.Response_Data::1      1658420                      
system.ruby.network.routers09.msg_count.Response_Control::1      1270399                      
system.ruby.network.routers09.msg_count.Response_Control::2      1113270                      
system.ruby.network.routers09.msg_count.Writeback_Data::0        28661                      
system.ruby.network.routers09.msg_count.Writeback_Data::1        61204                      
system.ruby.network.routers09.msg_count.Writeback_Control::0      1014222                      
system.ruby.network.routers09.msg_bytes.Control::0     13259456                      
system.ruby.network.routers09.msg_bytes.Request_Control::2      2313704                      
system.ruby.network.routers09.msg_bytes.Response_Data::1    119406240                      
system.ruby.network.routers09.msg_bytes.Response_Control::1     10163192                      
system.ruby.network.routers09.msg_bytes.Response_Control::2      8906160                      
system.ruby.network.routers09.msg_bytes.Writeback_Data::0      2063592                      
system.ruby.network.routers09.msg_bytes.Writeback_Data::1      4406688                      
system.ruby.network.routers09.msg_bytes.Writeback_Control::0      8113776                      
system.ruby.network.routers10.percent_links_utilized     0.551655                      
system.ruby.network.routers10.msg_count.Control::0     16427478                      
system.ruby.network.routers10.msg_count.Request_Control::2       372028                      
system.ruby.network.routers10.msg_count.Response_Data::1     18182808                      
system.ruby.network.routers10.msg_count.Response_Control::1     16084306                      
system.ruby.network.routers10.msg_count.Response_Control::2      8888484                      
system.ruby.network.routers10.msg_count.Writeback_Data::0      4450636                      
system.ruby.network.routers10.msg_count.Writeback_Data::1        84377                      
system.ruby.network.routers10.msg_count.Writeback_Control::0      4231251                      
system.ruby.network.routers10.msg_bytes.Control::0    131419824                      
system.ruby.network.routers10.msg_bytes.Request_Control::2      2976224                      
system.ruby.network.routers10.msg_bytes.Response_Data::1   1309162176                      
system.ruby.network.routers10.msg_bytes.Response_Control::1    128674448                      
system.ruby.network.routers10.msg_bytes.Response_Control::2     71107872                      
system.ruby.network.routers10.msg_bytes.Writeback_Data::0    320445792                      
system.ruby.network.routers10.msg_bytes.Writeback_Data::1      6075144                      
system.ruby.network.routers10.msg_bytes.Writeback_Control::0     33850008                      
system.ruby.network.routers11.percent_links_utilized     0.196204                      
system.ruby.network.routers11.msg_count.Control::0      5447358                      
system.ruby.network.routers11.msg_count.Response_Data::1      8571209                      
system.ruby.network.routers11.msg_count.Response_Control::1      6492915                      
system.ruby.network.routers11.msg_bytes.Control::0     43578864                      
system.ruby.network.routers11.msg_bytes.Response_Data::1    617127048                      
system.ruby.network.routers11.msg_bytes.Response_Control::1     51943320                      
system.ruby.network.routers12.percent_links_utilized     0.096912                      
system.ruby.network.routers12.msg_count.Control::0     16427478                      
system.ruby.network.routers12.msg_count.Request_Control::2      1053918                      
system.ruby.network.routers12.msg_count.Response_Data::1     19611283                      
system.ruby.network.routers12.msg_count.Response_Control::1     16084375                      
system.ruby.network.routers12.msg_count.Response_Control::2      8888484                      
system.ruby.network.routers12.msg_count.Writeback_Data::0      4450636                      
system.ruby.network.routers12.msg_count.Writeback_Data::1        84377                      
system.ruby.network.routers12.msg_count.Writeback_Control::0      4231251                      
system.ruby.network.routers12.msg_bytes.Control::0    131419824                      
system.ruby.network.routers12.msg_bytes.Request_Control::2      8431344                      
system.ruby.network.routers12.msg_bytes.Response_Data::1   1412012376                      
system.ruby.network.routers12.msg_bytes.Response_Control::1    128675000                      
system.ruby.network.routers12.msg_bytes.Response_Control::2     71107872                      
system.ruby.network.routers12.msg_bytes.Writeback_Data::0    320445792                      
system.ruby.network.routers12.msg_bytes.Writeback_Data::1      6075144                      
system.ruby.network.routers12.msg_bytes.Writeback_Control::0     33850008                      
system.ruby.network.msg_count.Control        49282434                      
system.ruby.network.msg_count.Request_Control      2479864                      
system.ruby.network.msg_count.Response_Data     57465393                      
system.ruby.network.msg_count.Response_Control     74918577                      
system.ruby.network.msg_count.Writeback_Data     13605039                      
system.ruby.network.msg_count.Writeback_Control     12693753                      
system.ruby.network.msg_byte.Control        394259472                      
system.ruby.network.msg_byte.Request_Control     19838912                      
system.ruby.network.msg_byte.Response_Data   4137508296                      
system.ruby.network.msg_byte.Response_Control    599348616                      
system.ruby.network.msg_byte.Writeback_Data    979562808                      
system.ruby.network.msg_byte.Writeback_Control    101550024                      
system.ruby.network.routers00.throttle0.link_utilization            0                      
system.ruby.network.routers00.throttle1.link_utilization            0                      
system.ruby.network.routers01.throttle0.link_utilization            0                      
system.ruby.network.routers01.throttle1.link_utilization            0                      
system.ruby.network.routers02.throttle0.link_utilization            0                      
system.ruby.network.routers02.throttle1.link_utilization            0                      
system.ruby.network.routers03.throttle0.link_utilization            0                      
system.ruby.network.routers03.throttle1.link_utilization            0                      
system.ruby.network.routers04.throttle0.link_utilization            0                      
system.ruby.network.routers04.throttle1.link_utilization            0                      
system.ruby.network.routers05.throttle0.link_utilization     0.191969                      
system.ruby.network.routers05.throttle0.msg_count.Request_Control::2        20745                      
system.ruby.network.routers05.throttle0.msg_count.Response_Data::1      4357985                      
system.ruby.network.routers05.throttle0.msg_count.Response_Control::1      4336454                      
system.ruby.network.routers05.throttle0.msg_bytes.Request_Control::2       165960                      
system.ruby.network.routers05.throttle0.msg_bytes.Response_Data::1    313774920                      
system.ruby.network.routers05.throttle0.msg_bytes.Response_Control::1     34691632                      
system.ruby.network.routers05.throttle1.link_utilization     0.211119                      
system.ruby.network.routers05.throttle1.msg_count.Control::0      4358030                      
system.ruby.network.routers05.throttle1.msg_count.Response_Data::1          117                      
system.ruby.network.routers05.throttle1.msg_count.Response_Control::1           90                      
system.ruby.network.routers05.throttle1.msg_count.Response_Control::2      4358019                      
system.ruby.network.routers05.throttle1.msg_count.Writeback_Data::0      4335940                      
system.ruby.network.routers05.throttle1.msg_count.Writeback_Data::1        20596                      
system.ruby.network.routers05.throttle1.msg_count.Writeback_Control::0          407                      
system.ruby.network.routers05.throttle1.msg_bytes.Control::0     34864240                      
system.ruby.network.routers05.throttle1.msg_bytes.Response_Data::1         8424                      
system.ruby.network.routers05.throttle1.msg_bytes.Response_Control::1          720                      
system.ruby.network.routers05.throttle1.msg_bytes.Response_Control::2     34864152                      
system.ruby.network.routers05.throttle1.msg_bytes.Writeback_Data::0    312187680                      
system.ruby.network.routers05.throttle1.msg_bytes.Writeback_Data::1      1482912                      
system.ruby.network.routers05.throttle1.msg_bytes.Writeback_Control::0         3256                      
system.ruby.network.routers06.throttle0.link_utilization     0.071528                      
system.ruby.network.routers06.throttle0.msg_count.Request_Control::2       274897                      
system.ruby.network.routers06.throttle0.msg_count.Response_Data::1      1651810                      
system.ruby.network.routers06.throttle0.msg_count.Response_Control::1      1096597                      
system.ruby.network.routers06.throttle0.msg_bytes.Request_Control::2      2199176                      
system.ruby.network.routers06.throttle0.msg_bytes.Response_Data::1    118930320                      
system.ruby.network.routers06.throttle0.msg_bytes.Response_Control::1      8772776                      
system.ruby.network.routers06.throttle1.link_utilization     0.022865                      
system.ruby.network.routers06.throttle1.msg_count.Control::0      1651813                      
system.ruby.network.routers06.throttle1.msg_count.Response_Data::1        91064                      
system.ruby.network.routers06.throttle1.msg_count.Response_Control::1       227308                      
system.ruby.network.routers06.throttle1.msg_count.Response_Control::2      1149372                      
system.ruby.network.routers06.throttle1.msg_count.Writeback_Data::0        28439                      
system.ruby.network.routers06.throttle1.msg_count.Writeback_Data::1         2055                      
system.ruby.network.routers06.throttle1.msg_count.Writeback_Control::0      1068151                      
system.ruby.network.routers06.throttle1.msg_bytes.Control::0     13214504                      
system.ruby.network.routers06.throttle1.msg_bytes.Response_Data::1      6556608                      
system.ruby.network.routers06.throttle1.msg_bytes.Response_Control::1      1818464                      
system.ruby.network.routers06.throttle1.msg_bytes.Response_Control::2      9194976                      
system.ruby.network.routers06.throttle1.msg_bytes.Writeback_Data::0      2047608                      
system.ruby.network.routers06.throttle1.msg_bytes.Writeback_Data::1       147960                      
system.ruby.network.routers06.throttle1.msg_bytes.Writeback_Control::0      8545208                      
system.ruby.network.routers07.throttle0.link_utilization     0.071651                      
system.ruby.network.routers07.throttle0.msg_count.Request_Control::2       232003                      
system.ruby.network.routers07.throttle0.msg_count.Response_Data::1      1658691                      
system.ruby.network.routers07.throttle0.msg_count.Response_Control::1      1105463                      
system.ruby.network.routers07.throttle0.msg_bytes.Request_Control::2      1856024                      
system.ruby.network.routers07.throttle0.msg_bytes.Response_Data::1    119425752                      
system.ruby.network.routers07.throttle0.msg_bytes.Response_Control::1      8843704                      
system.ruby.network.routers07.throttle1.link_utilization     0.019628                      
system.ruby.network.routers07.throttle1.msg_count.Control::0      1658692                      
system.ruby.network.routers07.throttle1.msg_count.Response_Data::1         9268                      
system.ruby.network.routers07.throttle1.msg_count.Response_Control::1       227306                      
system.ruby.network.routers07.throttle1.msg_count.Response_Control::2      1150866                      
system.ruby.network.routers07.throttle1.msg_count.Writeback_Data::0        28690                      
system.ruby.network.routers07.throttle1.msg_count.Writeback_Data::1           61                      
system.ruby.network.routers07.throttle1.msg_count.Writeback_Control::0      1076771                      
system.ruby.network.routers07.throttle1.msg_bytes.Control::0     13269536                      
system.ruby.network.routers07.throttle1.msg_bytes.Response_Data::1       667296                      
system.ruby.network.routers07.throttle1.msg_bytes.Response_Control::1      1818448                      
system.ruby.network.routers07.throttle1.msg_bytes.Response_Control::2      9206928                      
system.ruby.network.routers07.throttle1.msg_bytes.Writeback_Data::0      2065680                      
system.ruby.network.routers07.throttle1.msg_bytes.Writeback_Data::1         4392                      
system.ruby.network.routers07.throttle1.msg_bytes.Writeback_Control::0      8614168                      
system.ruby.network.routers08.throttle0.link_utilization     0.071472                      
system.ruby.network.routers08.throttle0.msg_count.Request_Control::2       237060                      
system.ruby.network.routers08.throttle0.msg_count.Response_Data::1      1654152                      
system.ruby.network.routers08.throttle0.msg_count.Response_Control::1      1100608                      
system.ruby.network.routers08.throttle0.msg_bytes.Request_Control::2      1896480                      
system.ruby.network.routers08.throttle0.msg_bytes.Response_Data::1    119098944                      
system.ruby.network.routers08.throttle0.msg_bytes.Response_Control::1      8804864                      
system.ruby.network.routers08.throttle1.link_utilization     0.019830                      
system.ruby.network.routers08.throttle1.msg_count.Control::0      1654153                      
system.ruby.network.routers08.throttle1.msg_count.Response_Data::1        18586                      
system.ruby.network.routers08.throttle1.msg_count.Response_Control::1       227304                      
system.ruby.network.routers08.throttle1.msg_count.Response_Control::2      1116957                      
system.ruby.network.routers08.throttle1.msg_count.Writeback_Data::0        28906                      
system.ruby.network.routers08.throttle1.msg_count.Writeback_Data::1          461                      
system.ruby.network.routers08.throttle1.msg_count.Writeback_Control::0      1071700                      
system.ruby.network.routers08.throttle1.msg_bytes.Control::0     13233224                      
system.ruby.network.routers08.throttle1.msg_bytes.Response_Data::1      1338192                      
system.ruby.network.routers08.throttle1.msg_bytes.Response_Control::1      1818432                      
system.ruby.network.routers08.throttle1.msg_bytes.Response_Control::2      8935656                      
system.ruby.network.routers08.throttle1.msg_bytes.Writeback_Data::0      2081232                      
system.ruby.network.routers08.throttle1.msg_bytes.Writeback_Data::1        33192                      
system.ruby.network.routers08.throttle1.msg_bytes.Writeback_Control::0      8573600                      
system.ruby.network.routers09.throttle0.link_utilization     0.071578                      
system.ruby.network.routers09.throttle0.msg_count.Request_Control::2       289213                      
system.ruby.network.routers09.throttle0.msg_count.Response_Data::1      1657431                      
system.ruby.network.routers09.throttle0.msg_count.Response_Control::1      1042885                      
system.ruby.network.routers09.throttle0.msg_bytes.Request_Control::2      2313704                      
system.ruby.network.routers09.throttle0.msg_bytes.Response_Data::1    119335032                      
system.ruby.network.routers09.throttle0.msg_bytes.Response_Control::1      8343080                      
system.ruby.network.routers09.throttle1.link_utilization     0.021277                      
system.ruby.network.routers09.throttle1.msg_count.Control::0      1657432                      
system.ruby.network.routers09.throttle1.msg_count.Response_Data::1          989                      
system.ruby.network.routers09.throttle1.msg_count.Response_Control::1       227514                      
system.ruby.network.routers09.throttle1.msg_count.Response_Control::2      1113270                      
system.ruby.network.routers09.throttle1.msg_count.Writeback_Data::0        28661                      
system.ruby.network.routers09.throttle1.msg_count.Writeback_Data::1        61204                      
system.ruby.network.routers09.throttle1.msg_count.Writeback_Control::0      1014222                      
system.ruby.network.routers09.throttle1.msg_bytes.Control::0     13259456                      
system.ruby.network.routers09.throttle1.msg_bytes.Response_Data::1        71208                      
system.ruby.network.routers09.throttle1.msg_bytes.Response_Control::1      1820112                      
system.ruby.network.routers09.throttle1.msg_bytes.Response_Control::2      8906160                      
system.ruby.network.routers09.throttle1.msg_bytes.Writeback_Data::0      2063592                      
system.ruby.network.routers09.throttle1.msg_bytes.Writeback_Data::1      4406688                      
system.ruby.network.routers09.throttle1.msg_bytes.Writeback_Control::0      8113776                      
system.ruby.network.routers10.throttle0.link_utilization     0.529485                      
system.ruby.network.routers10.throttle0.msg_count.Control::0     10980120                      
system.ruby.network.routers10.throttle0.msg_count.Response_Data::1      5507363                      
system.ruby.network.routers10.throttle0.msg_count.Response_Control::1      5717836                      
system.ruby.network.routers10.throttle0.msg_count.Response_Control::2      8888484                      
system.ruby.network.routers10.throttle0.msg_count.Writeback_Data::0      4450636                      
system.ruby.network.routers10.throttle0.msg_count.Writeback_Data::1        84377                      
system.ruby.network.routers10.throttle0.msg_count.Writeback_Control::0      4231251                      
system.ruby.network.routers10.throttle0.msg_bytes.Control::0     87840960                      
system.ruby.network.routers10.throttle0.msg_bytes.Response_Data::1    396530136                      
system.ruby.network.routers10.throttle0.msg_bytes.Response_Control::1     45742688                      
system.ruby.network.routers10.throttle0.msg_bytes.Response_Control::2     71107872                      
system.ruby.network.routers10.throttle0.msg_bytes.Writeback_Data::0    320445792                      
system.ruby.network.routers10.throttle0.msg_bytes.Writeback_Data::1      6075144                      
[...]
system.ruby.L1Cache_Controller.NP.Load::total      6615533                      
system.ruby.L1Cache_Controller.NP.Store  |     4344237     99.53%     99.53% |        5071      0.12%     99.65% |        5072      0.12%     99.77% |        5085      0.12%     99.88% |        5071      0.12%    100.00%
system.ruby.L1Cache_Controller.NP.Store::total      4364536                      
system.ruby.L1Cache_Controller.NP.Inv    |           0      0.00%      0.00% |      227082     25.00%     25.00% |      227034     25.00%     50.00% |      227043     25.00%     75.00% |      227039     25.00%    100.00%
system.ruby.L1Cache_Controller.NP.Inv::total       908198                      
system.ruby.L1Cache_Controller.I.L1_Replacement |           0      0.00%      0.00% |           2     33.33%     33.33% |           2     33.33%     66.67% |           2     33.33%    100.00% |           0      0.00%    100.00%
system.ruby.L1Cache_Controller.I.L1_Replacement::total            6                      
system.ruby.L1Cache_Controller.S.Load    |           1     33.33%     33.33% |           0      0.00%     33.33% |           1     33.33%     66.67% |           0      0.00%     66.67% |           1     33.33%    100.00%
system.ruby.L1Cache_Controller.S.Load::total            3                      
system.ruby.L1Cache_Controller.S.Store   |          45     88.24%     88.24% |           3      5.88%     94.12% |           1      1.96%     96.08% |           1      1.96%     98.04% |           1      1.96%    100.00%
system.ruby.L1Cache_Controller.S.Store::total           51                      
system.ruby.L1Cache_Controller.S.L0_Invalidate_Own |           1      0.00%      0.00% |      548746     25.00%     25.00% |      548750     25.00%     50.00% |      548737     25.00%     75.00% |      548807     25.00%    100.00%
system.ruby.L1Cache_Controller.S.L0_Invalidate_Own::total      2195041                      
system.ruby.L1Cache_Controller.S.L0_Invalidate_Else |           3      0.30%      0.30% |         217     21.81%     22.11% |         263     26.43%     48.54% |         251     25.23%     73.77% |         261     26.23%    100.00%
system.ruby.L1Cache_Controller.S.L0_Invalidate_Else::total          995                      
system.ruby.L1Cache_Controller.SS.Load   |           7      0.01%      0.01% |       45410     76.02%     76.03% |        4557      7.63%     83.66% |        9276     15.53%     99.19% |         484      0.81%    100.00%
system.ruby.L1Cache_Controller.SS.Load::total        59734                      
system.ruby.L1Cache_Controller.SS.Inv    |          13      1.25%      1.25% |         226     21.73%     22.98% |         272     26.15%     49.13% |         261     25.10%     74.23% |         268     25.77%    100.00%
system.ruby.L1Cache_Controller.SS.Inv::total         1040                      
system.ruby.L1Cache_Controller.SS.L1_Replacement |           1      0.00%      0.00% |      548856     25.00%     25.00% |      548814     25.00%     50.00% |      548741     25.00%     75.00% |      548808     25.00%    100.00%
system.ruby.L1Cache_Controller.SS.L1_Replacement::total      2195220                      
system.ruby.L1Cache_Controller.E.WriteBack |         632      0.01%      0.01% |     1070575     24.92%     24.93% |     1077129     25.07%     50.00% |     1072494     24.96%     74.96% |     1075717     25.04%    100.00%
system.ruby.L1Cache_Controller.E.WriteBack::total      4296547                      
system.ruby.L1Cache_Controller.E.L0_Invalidate_Own |       12359     11.60%     11.60% |       23267     21.84%     33.45% |       23590     22.15%     55.59% |       23757     22.30%     77.90% |       23541     22.10%    100.00%
system.ruby.L1Cache_Controller.E.L0_Invalidate_Own::total       106514                      
system.ruby.L1Cache_Controller.E.L0_Invalidate_Else |          88      0.15%      0.15% |       45600     75.60%     75.74% |        4643      7.70%     83.44% |        9293     15.41%     98.85% |         696      1.15%    100.00%
system.ruby.L1Cache_Controller.E.L0_Invalidate_Else::total        60320                      
system.ruby.L1Cache_Controller.EE.Load   |           2      1.67%      1.67% |          82     68.33%     70.00% |          21     17.50%     87.50% |          13     10.83%     98.33% |           2      1.67%    100.00%
system.ruby.L1Cache_Controller.EE.Load::total          120                      
system.ruby.L1Cache_Controller.EE.Inv    |          77     27.11%     27.11% |           0      0.00%     27.11% |           0      0.00%     27.11% |           0      0.00%     27.11% |         207     72.89%    100.00%
system.ruby.L1Cache_Controller.EE.Inv::total          284                      
system.ruby.L1Cache_Controller.EE.L1_Replacement |        9788      9.57%      9.57% |       22827     22.32%     31.89% |       23167     22.65%     54.53% |       23360     22.84%     77.37% |       23145     22.63%    100.00%
system.ruby.L1Cache_Controller.EE.L1_Replacement::total       102287                      
system.ruby.L1Cache_Controller.EE.Fwd_GETX |           1    100.00%    100.00% |           0      0.00%    100.00% |           0      0.00%    100.00% |           0      0.00%    100.00% |           0      0.00%    100.00%
system.ruby.L1Cache_Controller.EE.Fwd_GETX::total            1                      
system.ruby.L1Cache_Controller.EE.Fwd_GETS |           4      0.01%      0.01% |       45518     75.98%     75.98% |        4622      7.71%     83.70% |        9280     15.49%     99.19% |         486      0.81%    100.00%
system.ruby.L1Cache_Controller.EE.Fwd_GETS::total        59910                      
system.ruby.L1Cache_Controller.M.WriteBack |     4333091     88.03%     88.03% |      151086      3.07%     91.10% |      144410      2.93%     94.04% |      148274      3.01%     97.05% |      145156      2.95%    100.00%
system.ruby.L1Cache_Controller.M.WriteBack::total      4922017                      
system.ruby.L1Cache_Controller.M.L0_Invalidate_Own |       10378     33.62%     33.62% |        5164     16.73%     50.35% |        5090     16.49%     66.84% |        5125     16.60%     83.45% |        5110     16.55%    100.00%
system.ruby.L1Cache_Controller.M.L0_Invalidate_Own::total        30867                      
system.ruby.L1Cache_Controller.M.L0_Invalidate_Else |         960     81.36%     81.36% |          36      3.05%     84.41% |          41      3.47%     87.88% |          88      7.46%     95.34% |          55      4.66%    100.00%
system.ruby.L1Cache_Controller.M.L0_Invalidate_Else::total         1180                      
system.ruby.L1Cache_Controller.MM.Load   |         100      0.02%      0.02% |      151340     25.65%     25.67% |      144597     24.51%     50.18% |      148529     25.18%     75.36% |      145376     24.64%    100.00%
system.ruby.L1Cache_Controller.MM.Load::total       589942                      
system.ruby.L1Cache_Controller.MM.Store  |         171    100.00%    100.00% |           0      0.00%    100.00% |           0      0.00%    100.00% |           0      0.00%    100.00% |           0      0.00%    100.00%
system.ruby.L1Cache_Controller.MM.Store::total          171                      
system.ruby.L1Cache_Controller.MM.Inv    |       20596     24.41%     24.41% |        2055      2.44%     26.85% |          61      0.07%     26.92% |         461      0.55%     27.47% |       61186     72.53%    100.00%
system.ruby.L1Cache_Controller.MM.Inv::total        84359                      
system.ruby.L1Cache_Controller.MM.L1_Replacement |     4326559     50.43%     50.43% |     1073763     12.52%     62.94% |     1082294     12.61%     75.56% |     1077246     12.56%     88.11% |     1019738     11.89%    100.00%
system.ruby.L1Cache_Controller.MM.L1_Replacement::total      8579600                      
system.ruby.L1Cache_Controller.MM.Fwd_GETX |           0      0.00%      0.00% |           4     30.77%     30.77% |           4     30.77%     61.54% |           4     30.77%     92.31% |           1      7.69%    100.00%
system.ruby.L1Cache_Controller.MM.Fwd_GETX::total           13                      
system.ruby.L1Cache_Controller.MM.Fwd_GETS |          54     56.84%     56.84% |          12     12.63%     69.47% |          10     10.53%     80.00% |          11     11.58%     91.58% |           8      8.42%    100.00%
system.ruby.L1Cache_Controller.MM.Fwd_GETS::total           95                      
system.ruby.L1Cache_Controller.IS.Data_Exclusive |       13696      0.31%      0.31% |     1139363     25.52%     25.83% |     1105343     24.76%     50.59% |     1105534     24.77%     75.36% |     1099956     24.64%    100.00%
system.ruby.L1Cache_Controller.IS.Data_Exclusive::total      4463892                      
system.ruby.L1Cache_Controller.IS.DataS_fromL1 |          41      0.07%      0.07% |        4935      8.22%      8.29% |       40450     67.41%     75.70% |        6337     10.56%     86.26% |        8242     13.74%    100.00%
system.ruby.L1Cache_Controller.IS.DataS_fromL1::total        60005                      
system.ruby.L1Cache_Controller.IS.Data_all_Acks |          11      0.00%      0.00% |      502441     24.02%     24.02% |      507826     24.28%     48.30% |      537196     25.68%     73.98% |      544162     26.02%    100.00%
system.ruby.L1Cache_Controller.IS.Data_all_Acks::total      2091636                      
system.ruby.L1Cache_Controller.IM.Data_all_Acks |     4344237     99.53%     99.53% |        5071      0.12%     99.65% |        5072      0.12%     99.77% |        5085      0.12%     99.88% |        5071      0.12%    100.00%
system.ruby.L1Cache_Controller.IM.Data_all_Acks::total      4364536                      
system.ruby.L1Cache_Controller.SM.Ack    |          62     89.86%     89.86% |           4      5.80%     95.65% |           1      1.45%     97.10% |           1      1.45%     98.55% |           1      1.45%    100.00%
system.ruby.L1Cache_Controller.SM.Ack::total           69                      
system.ruby.L1Cache_Controller.SM.Ack_all |          45     88.24%     88.24% |           3      5.88%     94.12% |           1      1.96%     96.08% |           1      1.96%     98.04% |           1      1.96%    100.00%
system.ruby.L1Cache_Controller.SM.Ack_all::total           51                      
system.ruby.L1Cache_Controller.M_I.Inv   |           0      0.00%      0.00% |           0      0.00%      0.00% |           0      0.00%      0.00% |           0      0.00%      0.00% |          18    100.00%    100.00%
system.ruby.L1Cache_Controller.M_I.Inv::total           18                      
system.ruby.L1Cache_Controller.M_I.WB_Ack |     4336347     49.95%     49.95% |     1096590     12.63%     62.58% |     1105461     12.73%     75.31% |     1100606     12.68%     87.99% |     1042865     12.01%    100.00%
system.ruby.L1Cache_Controller.M_I.WB_Ack::total      8681869                      
system.ruby.L1Cache_Controller.SINK_WB_ACK.WB_Ack |           0      0.00%      0.00% |           0      0.00%      0.00% |           0      0.00%      0.00% |           0      0.00%      0.00% |          18    100.00%    100.00%
system.ruby.L1Cache_Controller.SINK_WB_ACK.WB_Ack::total           18                      
system.ruby.L1Cache_Controller.S_IL0.L0_Invalidate_Own |           1      0.00%      0.00% |      548746     25.00%     25.00% |      548750     25.00%     50.00% |      548737     25.00%     75.00% |      548807     25.00%    100.00%
system.ruby.L1Cache_Controller.S_IL0.L0_Invalidate_Own::total      2195041                      
system.ruby.L1Cache_Controller.S_IL0.L0_Invalidate_Else |           3      0.30%      0.30% |         217     21.81%     22.11% |         263     26.43%     48.54% |         251     25.23%     73.77% |         261     26.23%    100.00%
system.ruby.L1Cache_Controller.S_IL0.L0_Invalidate_Else::total          995                      
system.ruby.L1Cache_Controller.S_IL0.L0_Ack |           4      0.00%      0.00% |      548963     25.00%     25.00% |      549013     25.00%     50.00% |      548988     25.00%     75.00% |      549068     25.00%    100.00%
system.ruby.L1Cache_Controller.S_IL0.L0_Ack::total      2196036                      
system.ruby.L1Cache_Controller.E_IL0.L0_DataAck |        2575     60.85%     60.85% |         440     10.40%     71.24% |         423     10.00%     81.24% |         397      9.38%     90.62% |         397      9.38%    100.00%
system.ruby.L1Cache_Controller.E_IL0.L0_DataAck::total         4232                      
system.ruby.L1Cache_Controller.E_IL0.L0_Invalidate_Own |       12359     11.60%     11.60% |       23267     21.84%     33.45% |       23590     22.15%     55.59% |       23757     22.30%     77.90% |       23541     22.10%    100.00%
system.ruby.L1Cache_Controller.E_IL0.L0_Invalidate_Own::total       106514                      
system.ruby.L1Cache_Controller.E_IL0.L0_Invalidate_Else |          88      0.15%      0.15% |       45600     75.60%     75.74% |        4643      7.70%     83.44% |        9293     15.41%     98.85% |         696      1.15%    100.00%
system.ruby.L1Cache_Controller.E_IL0.L0_Invalidate_Else::total        60320                      
system.ruby.L1Cache_Controller.E_IL0.L0_Ack |        9872      6.07%      6.07% |       68427     42.08%     48.15% |       27810     17.10%     65.26% |       32653     20.08%     85.34% |       23840     14.66%    100.00%
system.ruby.L1Cache_Controller.E_IL0.L0_Ack::total       162602                      
system.ruby.L1Cache_Controller.M_IL0.L0_DataAck |       11287     36.35%     36.35% |        4942     15.92%     52.27% |        4941     15.91%     68.18% |        4941     15.91%     84.09% |        4940     15.91%    100.00%
system.ruby.L1Cache_Controller.M_IL0.L0_DataAck::total        31051                      
system.ruby.L1Cache_Controller.M_IL0.L0_Invalidate_Own |       10378     33.62%     33.62% |        5164     16.73%     50.35% |        5090     16.49%     66.84% |        5125     16.60%     83.45% |        5110     16.55%    100.00%
system.ruby.L1Cache_Controller.M_IL0.L0_Invalidate_Own::total        30867                      
system.ruby.L1Cache_Controller.M_IL0.L0_Invalidate_Else |         960     81.36%     81.36% |          36      3.05%     84.41% |          41      3.47%     87.88% |          88      7.46%     95.34% |          55      4.66%    100.00%
system.ruby.L1Cache_Controller.M_IL0.L0_Invalidate_Else::total         1180                      
system.ruby.L1Cache_Controller.M_IL0.L0_Ack |          51      5.12%      5.12% |         258     25.90%     31.02% |         190     19.08%     50.10% |         272     27.31%     77.41% |         225     22.59%    100.00%
system.ruby.L1Cache_Controller.M_IL0.L0_Ack::total          996                      
system.ruby.L2Cache_Controller.L1_GETS        6800291      0.00%      0.00%
system.ruby.L2Cache_Controller.L1_GETX        4364546      0.00%      0.00%
system.ruby.L2Cache_Controller.L1_UPGRADE           51      0.00%      0.00%
system.ruby.L2Cache_Controller.L1_PUTX        8681869      0.00%      0.00%
system.ruby.L2Cache_Controller.L1_PUTX_old           36      0.00%      0.00%
system.ruby.L2Cache_Controller.L2_Replacement      3103093      0.00%      0.00%
system.ruby.L2Cache_Controller.L2_Replacement_clean      1705290      0.00%      0.00%
system.ruby.L2Cache_Controller.Mem_Data       5447358      0.00%      0.00%
system.ruby.L2Cache_Controller.Mem_Ack        4808383      0.00%      0.00%
system.ruby.L2Cache_Controller.WB_Data          80769      0.00%      0.00%
system.ruby.L2Cache_Controller.WB_Data_clean        63613      0.00%      0.00%
system.ruby.L2Cache_Controller.Ack             681872      0.00%      0.00%
system.ruby.L2Cache_Controller.Ack_all         227581      0.00%      0.00%
system.ruby.L2Cache_Controller.Unblock          60005      0.00%      0.00%
system.ruby.L2Cache_Controller.Exclusive_Unblock      8828479      0.00%      0.00%
system.ruby.L2Cache_Controller.NP.L1_GETS      1233996      0.00%      0.00%
system.ruby.L2Cache_Controller.NP.L1_GETX      4213362      0.00%      0.00%
system.ruby.L2Cache_Controller.NP.L1_PUTX_old           18      0.00%      0.00%
system.ruby.L2Cache_Controller.SS.L1_GETS       252341      0.00%      0.00%
system.ruby.L2Cache_Controller.SS.L1_UPGRADE           51      0.00%      0.00%
system.ruby.L2Cache_Controller.SS.L2_Replacement         6340      0.00%      0.00%
system.ruby.L2Cache_Controller.SS.L2_Replacement_clean       220957      0.00%      0.00%
system.ruby.L2Cache_Controller.M.L1_GETS      3700735      0.00%      0.00%
system.ruby.L2Cache_Controller.M.L1_GETX       151160      0.00%      0.00%
system.ruby.L2Cache_Controller.M.L2_Replacement      3096663      0.00%      0.00%
system.ruby.L2Cache_Controller.M.L2_Replacement_clean      1399762      0.00%      0.00%
system.ruby.L2Cache_Controller.MT.L1_GETS        60005      0.00%      0.00%
system.ruby.L2Cache_Controller.MT.L1_GETX           14      0.00%      0.00%
system.ruby.L2Cache_Controller.MT.L1_PUTX      8681869      0.00%      0.00%
system.ruby.L2Cache_Controller.MT.L2_Replacement           90      0.00%      0.00%
system.ruby.L2Cache_Controller.MT.L2_Replacement_clean        84571      0.00%      0.00%
system.ruby.L2Cache_Controller.M_I.L1_GETS            7      0.00%      0.00%
system.ruby.L2Cache_Controller.M_I.L1_GETX            1      0.00%      0.00%
system.ruby.L2Cache_Controller.M_I.Mem_Ack      4808383      0.00%      0.00%
system.ruby.L2Cache_Controller.MT_I.WB_Data           22      0.00%      0.00%
system.ruby.L2Cache_Controller.MT_I.WB_Data_clean           22      0.00%      0.00%
system.ruby.L2Cache_Controller.MT_I.Ack_all           46      0.00%      0.00%
system.ruby.L2Cache_Controller.MCT_I.L1_PUTX_old           18      0.00%      0.00%
system.ruby.L2Cache_Controller.MCT_I.WB_Data        20758      0.00%      0.00%
system.ruby.L2Cache_Controller.MCT_I.WB_Data_clean        63575      0.00%      0.00%
system.ruby.L2Cache_Controller.MCT_I.Ack_all          238      0.00%      0.00%
system.ruby.L2Cache_Controller.I_I.Ack         662866      0.00%      0.00%
system.ruby.L2Cache_Controller.I_I.Ack_all       220957      0.00%      0.00%
system.ruby.L2Cache_Controller.S_I.Ack          19006      0.00%      0.00%
system.ruby.L2Cache_Controller.S_I.Ack_all         6340      0.00%      0.00%
system.ruby.L2Cache_Controller.ISS.L1_GETS       470839      0.00%      0.00%
system.ruby.L2Cache_Controller.ISS.Mem_Data       763157      0.00%      0.00%
system.ruby.L2Cache_Controller.IS.L1_GETS       897617      0.00%      0.00%
system.ruby.L2Cache_Controller.IS.Mem_Data       470839      0.00%      0.00%
system.ruby.L2Cache_Controller.IM.L1_GETX            5      0.00%      0.00%
system.ruby.L2Cache_Controller.IM.Mem_Data      4213362      0.00%      0.00%
system.ruby.L2Cache_Controller.SS_MB.Exclusive_Unblock           51      0.00%      0.00%
system.ruby.L2Cache_Controller.MT_MB.L1_GETS        82084      0.00%      0.00%
system.ruby.L2Cache_Controller.MT_MB.L1_GETX            4      0.00%      0.00%
system.ruby.L2Cache_Controller.MT_MB.Exclusive_Unblock      8828428      0.00%      0.00%
system.ruby.L2Cache_Controller.MT_IIB.L1_GETS       102634      0.00%      0.00%
system.ruby.L2Cache_Controller.MT_IIB.WB_Data        59812      0.00%      0.00%
system.ruby.L2Cache_Controller.MT_IIB.WB_Data_clean           16      0.00%      0.00%
system.ruby.L2Cache_Controller.MT_IIB.Unblock          177      0.00%      0.00%
system.ruby.L2Cache_Controller.MT_IB.WB_Data          177      0.00%      0.00%
system.ruby.L2Cache_Controller.MT_SB.L1_GETS           33      0.00%      0.00%
system.ruby.L2Cache_Controller.MT_SB.Unblock        59828      0.00%      0.00%

---------- End Simulation Statistics   ----------
