
---------- Begin Simulation Statistics ----------
sim_seconds                                  3.024541                       # Number of seconds simulated
sim_ticks                                3024540742000                       # Number of ticks simulated
final_tick                               3024540742000                       # Number of ticks from beginning of simulation (restored from checkpoints and never reset)
sim_freq                                 1000000000000                       # Frequency of simulated ticks
host_inst_rate                                 154690                       # Simulator instruction rate (inst/s)
host_op_rate                                   434315                       # Simulator op (including micro ops) rate (op/s)
host_tick_rate                              258833950                       # Simulator tick rate (ticks/s)
host_mem_usage                                1309048                       # Number of bytes of host memory used
host_seconds                                 11685.26                       # Real time elapsed on the host
sim_insts                                  1807589151                       # Number of instructions simulated
sim_ops                                    5075082723                       # Number of ops (including micro ops) simulated
system.voltage_domain.voltage                       1                       # Voltage in Volts
system.clk_domain.clock                          1000                       # Clock period in ticks
system.mem_ctrls.bytes_read::ruby.dir_cntrl0    106233536                       # Number of bytes read from this memory
system.mem_ctrls.bytes_read::total          106233536                       # Number of bytes read from this memory
system.mem_ctrls.bytes_written::ruby.dir_cntrl0     63860224                       # Number of bytes written to this memory
system.mem_ctrls.bytes_written::total        63860224                       # Number of bytes written to this memory
system.mem_ctrls.num_reads::ruby.dir_cntrl0      1659899                       # Number of read requests responded to by this memory
system.mem_ctrls.num_reads::total             1659899                       # Number of read requests responded to by this memory
system.mem_ctrls.num_writes::ruby.dir_cntrl0       997816                       # Number of write requests responded to by this memory
system.mem_ctrls.num_writes::total             997816                       # Number of write requests responded to by this memory
system.mem_ctrls.bw_read::ruby.dir_cntrl0     35123857                       # Total read bandwidth from this memory (bytes/s)
system.mem_ctrls.bw_read::total              35123857                       # Total read bandwidth from this memory (bytes/s)
system.mem_ctrls.bw_write::ruby.dir_cntrl0     21114023                       # Write bandwidth from this memory (bytes/s)
system.mem_ctrls.bw_write::total             21114023                       # Write bandwidth from this memory (bytes/s)
system.mem_ctrls.bw_total::ruby.dir_cntrl0     56237880                       # Total bandwidth to/from this memory (bytes/s)
system.mem_ctrls.bw_total::total             56237880                       # Total bandwidth to/from this memory (bytes/s)
system.mem_ctrls.readReqs                     1659899                       # Number of read requests accepted
system.mem_ctrls.writeReqs                     997816                       # Number of write requests accepted
system.mem_ctrls.readBursts                   1659899                       # Number of DRAM read bursts, including those serviced by the write queue
system.mem_ctrls.writeBursts                   997816                       # Number of DRAM write bursts, including those merged in the write queue
system.mem_ctrls.bytesReadDRAM              106230144                       # Total number of bytes read from DRAM
system.mem_ctrls.bytesReadWrQ                    3392                       # Total number of bytes read from write queue
system.mem_ctrls.bytesWritten                63858240                       # Total number of bytes written to DRAM
system.mem_ctrls.bytesReadSys               106233536                       # Total read bytes from the system interface side
system.mem_ctrls.bytesWrittenSys             63860224                       # Total written bytes from the system interface side
system.mem_ctrls.servicedByWrQ                     53                       # Number of DRAM read bursts serviced by the write queue
system.mem_ctrls.mergedWrBursts                     0                       # Number of DRAM write bursts merged with an existing one
system.mem_ctrls.neitherReadNorWriteReqs            0                       # Number of requests that are neither read nor write
system.mem_ctrls.perBankRdBursts::0            102589                       # Per bank write bursts
system.mem_ctrls.perBankRdBursts::1            104185                       # Per bank write bursts
system.mem_ctrls.perBankRdBursts::2            100803                       # Per bank write bursts
system.mem_ctrls.perBankRdBursts::3            102429                       # Per bank write bursts
system.mem_ctrls.perBankRdBursts::4            104194                       # Per bank write bursts
system.mem_ctrls.perBankRdBursts::5            103334                       # Per bank write bursts
system.mem_ctrls.perBankRdBursts::6            101743                       # Per bank write bursts
system.mem_ctrls.perBankRdBursts::7            101752                       # Per bank write bursts
system.mem_ctrls.perBankRdBursts::8            103232                       # Per bank write bursts
system.mem_ctrls.perBankRdBursts::9            104901                       # Per bank write bursts
system.mem_ctrls.perBankRdBursts::10           104865                       # Per bank write bursts
system.mem_ctrls.perBankRdBursts::11           106251                       # Per bank write bursts
system.mem_ctrls.perBankRdBursts::12           105585                       # Per bank write bursts
system.mem_ctrls.perBankRdBursts::13           105335                       # Per bank write bursts
system.mem_ctrls.perBankRdBursts::14           104271                       # Per bank write bursts
system.mem_ctrls.perBankRdBursts::15           104377                       # Per bank write bursts
system.mem_ctrls.perBankWrBursts::0             61073                       # Per bank write bursts
system.mem_ctrls.perBankWrBursts::1             62890                       # Per bank write bursts
system.mem_ctrls.perBankWrBursts::2             59419                       # Per bank write bursts
system.mem_ctrls.perBankWrBursts::3             61102                       # Per bank write bursts
system.mem_ctrls.perBankWrBursts::4             62834                       # Per bank write bursts
system.mem_ctrls.perBankWrBursts::5             61891                       # Per bank write bursts
system.mem_ctrls.perBankWrBursts::6             60194                       # Per bank write bursts
system.mem_ctrls.perBankWrBursts::7             60241                       # Per bank write bursts
system.mem_ctrls.perBankWrBursts::8             61931                       # Per bank write bursts
system.mem_ctrls.perBankWrBursts::9             63622                       # Per bank write bursts
system.mem_ctrls.perBankWrBursts::10            63541                       # Per bank write bursts
system.mem_ctrls.perBankWrBursts::11            64997                       # Per bank write bursts
system.mem_ctrls.perBankWrBursts::12            64289                       # Per bank write bursts
system.mem_ctrls.perBankWrBursts::13            64009                       # Per bank write bursts
system.mem_ctrls.perBankWrBursts::14            62869                       # Per bank write bursts
system.mem_ctrls.perBankWrBursts::15            62883                       # Per bank write bursts
system.mem_ctrls.numRdRetry                         0                       # Number of times read queue was full causing retry
system.mem_ctrls.numWrRetry                         0                       # Number of times write queue was full causing retry
system.mem_ctrls.totGap                  3024540647500                       # Total gap between requests
system.mem_ctrls.readPktSize::0                     0                       # Read request sizes (log2)
system.mem_ctrls.readPktSize::1                     0                       # Read request sizes (log2)
system.mem_ctrls.readPktSize::2                     0                       # Read request sizes (log2)
system.mem_ctrls.readPktSize::3                     0                       # Read request sizes (log2)
system.mem_ctrls.readPktSize::4                     0                       # Read request sizes (log2)
system.mem_ctrls.readPktSize::5                     0                       # Read request sizes (log2)
system.mem_ctrls.readPktSize::6               1659899                       # Read request sizes (log2)
system.mem_ctrls.writePktSize::0                    0                       # Write request sizes (log2)
system.mem_ctrls.writePktSize::1                    0                       # Write request sizes (log2)
system.mem_ctrls.writePktSize::2                    0                       # Write request sizes (log2)
system.mem_ctrls.writePktSize::3                    0                       # Write request sizes (log2)
system.mem_ctrls.writePktSize::4                    0                       # Write request sizes (log2)
system.mem_ctrls.writePktSize::5                    0                       # Write request sizes (log2)
system.mem_ctrls.writePktSize::6               997816                       # Write request sizes (log2)
system.mem_ctrls.rdQLenPdf::0                 1479687                       # What read queue length does an incoming req see
system.mem_ctrls.rdQLenPdf::1                   56787                       # What read queue length does an incoming req see
system.mem_ctrls.rdQLenPdf::2                   42780                       # What read queue length does an incoming req see
system.mem_ctrls.rdQLenPdf::3                   32930                       # What read queue length does an incoming req see
system.mem_ctrls.rdQLenPdf::4                   18024                       # What read queue length does an incoming req see
system.mem_ctrls.rdQLenPdf::5                   12916                       # What read queue length does an incoming req see
system.mem_ctrls.rdQLenPdf::6                    9797                       # What read queue length does an incoming req see
system.mem_ctrls.rdQLenPdf::7                    6925                       # What read queue length does an incoming req see
system.mem_ctrls.rdQLenPdf::8                       0                       # What read queue length does an incoming req see
system.mem_ctrls.rdQLenPdf::9                       0                       # What read queue length does an incoming req see
system.mem_ctrls.rdQLenPdf::10                      0                       # What read queue length does an incoming req see
system.mem_ctrls.rdQLenPdf::11                      0                       # What read queue length does an incoming req see
system.mem_ctrls.rdQLenPdf::12                      0                       # What read queue length does an incoming req see
system.mem_ctrls.rdQLenPdf::13                      0                       # What read queue length does an incoming req see
system.mem_ctrls.rdQLenPdf::14                      0                       # What read queue length does an incoming req see
system.mem_ctrls.rdQLenPdf::15                      0                       # What read queue length does an incoming req see
system.mem_ctrls.rdQLenPdf::16                      0                       # What read queue length does an incoming req see
system.mem_ctrls.rdQLenPdf::17                      0                       # What read queue length does an incoming req see
system.mem_ctrls.rdQLenPdf::18                      0                       # What read queue length does an incoming req see
system.mem_ctrls.rdQLenPdf::19                      0                       # What read queue length does an incoming req see
system.mem_ctrls.rdQLenPdf::20                      0                       # What read queue length does an incoming req see
system.mem_ctrls.rdQLenPdf::21                      0                       # What read queue length does an incoming req see
system.mem_ctrls.rdQLenPdf::22                      0                       # What read queue length does an incoming req see
system.mem_ctrls.rdQLenPdf::23                      0                       # What read queue length does an incoming req see
system.mem_ctrls.rdQLenPdf::24                      0                       # What read queue length does an incoming req see
system.mem_ctrls.rdQLenPdf::25                      0                       # What read queue length does an incoming req see
system.mem_ctrls.rdQLenPdf::26                      0                       # What read queue length does an incoming req see
system.mem_ctrls.rdQLenPdf::27                      0                       # What read queue length does an incoming req see
system.mem_ctrls.rdQLenPdf::28                      0                       # What read queue length does an incoming req see
system.mem_ctrls.rdQLenPdf::29                      0                       # What read queue length does an incoming req see
system.mem_ctrls.rdQLenPdf::30                      0                       # What read queue length does an incoming req see
system.mem_ctrls.rdQLenPdf::31                      0                       # What read queue length does an incoming req see
system.mem_ctrls.wrQLenPdf::0                       1                       # What write queue length does an incoming req see
system.mem_ctrls.wrQLenPdf::1                       1                       # What write queue length does an incoming req see
system.mem_ctrls.wrQLenPdf::2                       1                       # What write queue length does an incoming req see
system.mem_ctrls.wrQLenPdf::3                       1                       # What write queue length does an incoming req see
system.mem_ctrls.wrQLenPdf::4                       1                       # What write queue length does an incoming req see
system.mem_ctrls.wrQLenPdf::5                       1                       # What write queue length does an incoming req see
system.mem_ctrls.wrQLenPdf::6                       1                       # What write queue length does an incoming req see
system.mem_ctrls.wrQLenPdf::7                       1                       # What write queue length does an incoming req see
system.mem_ctrls.wrQLenPdf::8                       1                       # What write queue length does an incoming req see
system.mem_ctrls.wrQLenPdf::9                       1                       # What write queue length does an incoming req see
system.mem_ctrls.wrQLenPdf::10                      1                       # What write queue length does an incoming req see
system.mem_ctrls.wrQLenPdf::11                      1                       # What write queue length does an incoming req see
system.mem_ctrls.wrQLenPdf::12                      1                       # What write queue length does an incoming req see
system.mem_ctrls.wrQLenPdf::13                      1                       # What write queue length does an incoming req see
system.mem_ctrls.wrQLenPdf::14                      1                       # What write queue length does an incoming req see
system.mem_ctrls.wrQLenPdf::15                   2791                       # What write queue length does an incoming req see
system.mem_ctrls.wrQLenPdf::16                   4000                       # What write queue length does an incoming req see
system.mem_ctrls.wrQLenPdf::17                  48558                       # What write queue length does an incoming req see
system.mem_ctrls.wrQLenPdf::18                  51756                       # What write queue length does an incoming req see
system.mem_ctrls.wrQLenPdf::19                  54179                       # What write queue length does an incoming req see
system.mem_ctrls.wrQLenPdf::20                  56367                       # What write queue length does an incoming req see
system.mem_ctrls.wrQLenPdf::21                  58622                       # What write queue length does an incoming req see
system.mem_ctrls.wrQLenPdf::22                  60594                       # What write queue length does an incoming req see
system.mem_ctrls.wrQLenPdf::23                  63280                       # What write queue length does an incoming req see
system.mem_ctrls.wrQLenPdf::24                  65444                       # What write queue length does an incoming req see
system.mem_ctrls.wrQLenPdf::25                  66147                       # What write queue length does an incoming req see
system.mem_ctrls.wrQLenPdf::26                  66495                       # What write queue length does an incoming req see
system.mem_ctrls.wrQLenPdf::27                  65769                       # What write queue length does an incoming req see
system.mem_ctrls.wrQLenPdf::28                  64844                       # What write queue length does an incoming req see
system.mem_ctrls.wrQLenPdf::29                  65223                       # What write queue length does an incoming req see
system.mem_ctrls.wrQLenPdf::30                  66838                       # What write queue length does an incoming req see
system.mem_ctrls.wrQLenPdf::31                  68291                       # What write queue length does an incoming req see
system.mem_ctrls.wrQLenPdf::32                  66310                       # What write queue length does an incoming req see
system.mem_ctrls.wrQLenPdf::33                   1183                       # What write queue length does an incoming req see
system.mem_ctrls.wrQLenPdf::34                    455                       # What write queue length does an incoming req see
system.mem_ctrls.wrQLenPdf::35                    225                       # What write queue length does an incoming req see
system.mem_ctrls.wrQLenPdf::36                    165                       # What write queue length does an incoming req see
system.mem_ctrls.wrQLenPdf::37                    117                       # What write queue length does an incoming req see
system.mem_ctrls.wrQLenPdf::38                     80                       # What write queue length does an incoming req see
system.mem_ctrls.wrQLenPdf::39                     53                       # What write queue length does an incoming req see
system.mem_ctrls.wrQLenPdf::40                      9                       # What write queue length does an incoming req see
system.mem_ctrls.wrQLenPdf::41                      4                       # What write queue length does an incoming req see
system.mem_ctrls.wrQLenPdf::42                      2                       # What write queue length does an incoming req see
system.mem_ctrls.wrQLenPdf::43                      0                       # What write queue length does an incoming req see
system.mem_ctrls.wrQLenPdf::44                      0                       # What write queue length does an incoming req see
system.mem_ctrls.wrQLenPdf::45                      0                       # What write queue length does an incoming req see
system.mem_ctrls.wrQLenPdf::46                      0                       # What write queue length does an incoming req see
system.mem_ctrls.wrQLenPdf::47                      0                       # What write queue length does an incoming req see
system.mem_ctrls.wrQLenPdf::48                      0                       # What write queue length does an incoming req see
system.mem_ctrls.wrQLenPdf::49                      0                       # What write queue length does an incoming req see
system.mem_ctrls.wrQLenPdf::50                      0                       # What write queue length does an incoming req see
system.mem_ctrls.wrQLenPdf::51                      0                       # What write queue length does an incoming req see
system.mem_ctrls.wrQLenPdf::52                      0                       # What write queue length does an incoming req see
system.mem_ctrls.wrQLenPdf::53                      0                       # What write queue length does an incoming req see
system.mem_ctrls.wrQLenPdf::54                      0                       # What write queue length does an incoming req see
system.mem_ctrls.wrQLenPdf::55                      0                       # What write queue length does an incoming req see
system.mem_ctrls.wrQLenPdf::56                      0                       # What write queue length does an incoming req see
system.mem_ctrls.wrQLenPdf::57                      0                       # What write queue length does an incoming req see
system.mem_ctrls.wrQLenPdf::58                      0                       # What write queue length does an incoming req see
system.mem_ctrls.wrQLenPdf::59                      0                       # What write queue length does an incoming req see
system.mem_ctrls.wrQLenPdf::60                      0                       # What write queue length does an incoming req see
system.mem_ctrls.wrQLenPdf::61                      0                       # What write queue length does an incoming req see
system.mem_ctrls.wrQLenPdf::62                      0                       # What write queue length does an incoming req see
system.mem_ctrls.wrQLenPdf::63                      0                       # What write queue length does an incoming req see
system.mem_ctrls.bytesPerActivate::samples       429129                       # Bytes accessed per row activation
system.mem_ctrls.bytesPerActivate::mean    396.352910                       # Bytes accessed per row activation
system.mem_ctrls.bytesPerActivate::gmean   274.698489                       # Bytes accessed per row activation
system.mem_ctrls.bytesPerActivate::stdev   310.913594                       # Bytes accessed per row activation
system.mem_ctrls.bytesPerActivate::0-127        80501     18.76%     18.76% # Bytes accessed per row activation
system.mem_ctrls.bytesPerActivate::128-255        67608     15.75%     34.51% # Bytes accessed per row activation
system.mem_ctrls.bytesPerActivate::256-383       100017     23.31%     57.82% # Bytes accessed per row activation
system.mem_ctrls.bytesPerActivate::384-511        41351      9.64%     67.46% # Bytes accessed per row activation
system.mem_ctrls.bytesPerActivate::512-639        38693      9.02%     76.47% # Bytes accessed per row activation
system.mem_ctrls.bytesPerActivate::640-767        26707      6.22%     82.70% # Bytes accessed per row activation
system.mem_ctrls.bytesPerActivate::768-895        17164      4.00%     86.70% # Bytes accessed per row activation
system.mem_ctrls.bytesPerActivate::896-1023        11412      2.66%     89.36% # Bytes accessed per row activation
system.mem_ctrls.bytesPerActivate::1024-1151        45676     10.64%    100.00% # Bytes accessed per row activation
system.mem_ctrls.bytesPerActivate::total       429129                       # Bytes accessed per row activation
system.mem_ctrls.rdPerTurnAround::samples        61899                       # Reads before turning the bus around for writes
system.mem_ctrls.rdPerTurnAround::mean      26.815150                       # Reads before turning the bus around for writes
system.mem_ctrls.rdPerTurnAround::gmean     16.260246                       # Reads before turning the bus around for writes
system.mem_ctrls.rdPerTurnAround::stdev   2409.415364                       # Reads before turning the bus around for writes
system.mem_ctrls.rdPerTurnAround::0-32767        61898    100.00%    100.00% # Reads before turning the bus around for writes
system.mem_ctrls.rdPerTurnAround::589824-622591            1      0.00%    100.00% # Reads before turning the bus around for writes
system.mem_ctrls.rdPerTurnAround::total         61899                       # Reads before turning the bus around for writes
system.mem_ctrls.wrPerTurnAround::samples        61899                       # Writes before turning the bus around for reads
system.mem_ctrls.wrPerTurnAround::mean      16.119566                       # Writes before turning the bus around for reads
system.mem_ctrls.wrPerTurnAround::gmean     16.112439                       # Writes before turning the bus around for reads
system.mem_ctrls.wrPerTurnAround::stdev      0.500833                       # Writes before turning the bus around for reads
system.mem_ctrls.wrPerTurnAround::16            58326     94.23%     94.23% # Writes before turning the bus around for reads
system.mem_ctrls.wrPerTurnAround::17              109      0.18%     94.40% # Writes before turning the bus around for reads
system.mem_ctrls.wrPerTurnAround::18             3280      5.30%     99.70% # Writes before turning the bus around for reads
system.mem_ctrls.wrPerTurnAround::19               91      0.15%     99.85% # Writes before turning the bus around for reads
system.mem_ctrls.wrPerTurnAround::20               42      0.07%     99.92% # Writes before turning the bus around for reads
system.mem_ctrls.wrPerTurnAround::21               25      0.04%     99.96% # Writes before turning the bus around for reads
system.mem_ctrls.wrPerTurnAround::22               16      0.03%     99.98% # Writes before turning the bus around for reads
system.mem_ctrls.wrPerTurnAround::23               10      0.02%    100.00% # Writes before turning the bus around for reads
system.mem_ctrls.wrPerTurnAround::total         61899                       # Writes before turning the bus around for reads
system.mem_ctrls.totQLat                  28590955251                       # Total ticks spent queuing
system.mem_ctrls.totMemAccLat             59713067751                       # Total ticks spent from burst creation until serviced by the DRAM
system.mem_ctrls.totBusLat                 8299230000                       # Total ticks spent in databus transfers
system.mem_ctrls.avgQLat                     17225.07                       # Average queueing delay per DRAM burst
system.mem_ctrls.avgBusLat                    5000.00                       # Average bus latency per DRAM burst
system.mem_ctrls.avgMemAccLat                35975.07                       # Average memory access latency per DRAM burst
system.mem_ctrls.avgRdBW                        35.12                       # Average DRAM read bandwidth in MiByte/s
system.mem_ctrls.avgWrBW                        21.11                       # Average achieved write bandwidth in MiByte/s
system.mem_ctrls.avgRdBWSys                     35.12                       # Average system read bandwidth in MiByte/s
system.mem_ctrls.avgWrBWSys                     21.11                       # Average system write bandwidth in MiByte/s
system.mem_ctrls.peakBW                      12800.00                       # Theoretical peak bandwidth in MiByte/s
system.mem_ctrls.busUtil                         0.44                       # Data bus utilization in percentage
system.mem_ctrls.busUtilRead                     0.27                       # Data bus utilization in percentage for reads
system.mem_ctrls.busUtilWrite                    0.16                       # Data bus utilization in percentage for writes
system.mem_ctrls.avgRdQLen                       1.01                       # Average read queue length when enqueuing
system.mem_ctrls.avgWrQLen                      15.76                       # Average write queue length when enqueuing
system.mem_ctrls.readRowHits                  1340417                       # Number of row buffer hits during reads
system.mem_ctrls.writeRowHits                  888074                       # Number of row buffer hits during writes
system.mem_ctrls.readRowHitRate                 80.76                       # Row buffer hit rate for reads
system.mem_ctrls.writeRowHitRate                89.00                       # Row buffer hit rate for writes
system.mem_ctrls.avgGap                    1138022.94                       # Average gap between requests
system.mem_ctrls.pageHitRate                    83.85                       # Row buffer hit rate, read and write combined
system.mem_ctrls_0.actEnergy               1598932440                       # Energy for activate commands per rank (pJ)
system.mem_ctrls_0.preEnergy                872433375                       # Energy for precharge commands per rank (pJ)
system.mem_ctrls_0.readEnergy              6403948200                       # Energy for read commands per rank (pJ)
system.mem_ctrls_0.writeEnergy             3172770000                       # Energy for write commands per rank (pJ)
system.mem_ctrls_0.refreshEnergy         197548097760                       # Energy for refresh commands per rank (pJ)
system.mem_ctrls_0.actBackEnergy         480087670185                       # Energy for active background per rank (pJ)
system.mem_ctrls_0.preBackEnergy         1393593221250                       # Energy for precharge background per rank (pJ)
system.mem_ctrls_0.totalEnergy           2083277073210                       # Total energy per rank (pJ)
system.mem_ctrls_0.averagePower            688.791850                       # Core power per rank (mW)
system.mem_ctrls_0.memoryStateTime::IDLE 2315535977001                       # Time in different power states
system.mem_ctrls_0.memoryStateTime::REF  100995960000                       # Time in different power states
system.mem_ctrls_0.memoryStateTime::PRE_PDN            0                       # Time in different power states
system.mem_ctrls_0.memoryStateTime::ACT  608006004249                       # Time in different power states
system.mem_ctrls_0.memoryStateTime::ACT_PDN            0                       # Time in different power states
system.mem_ctrls_1.actEnergy               1645199640                       # Energy for activate commands per rank (pJ)
system.mem_ctrls_1.preEnergy                897678375                       # Energy for precharge commands per rank (pJ)
system.mem_ctrls_1.readEnergy              6542593200                       # Energy for read commands per rank (pJ)
system.mem_ctrls_1.writeEnergy             3292656480                       # Energy for write commands per rank (pJ)
system.mem_ctrls_1.refreshEnergy         197548097760                       # Energy for refresh commands per rank (pJ)
system.mem_ctrls_1.actBackEnergy         480344511330                       # Energy for active background per rank (pJ)
system.mem_ctrls_1.preBackEnergy         1393367922000                       # Energy for precharge background per rank (pJ)
system.mem_ctrls_1.totalEnergy           2083638658785                       # Total energy per rank (pJ)
system.mem_ctrls_1.averagePower            688.911400                       # Core power per rank (mW)
system.mem_ctrls_1.memoryStateTime::IDLE 2315125566751                       # Time in different power states
system.mem_ctrls_1.memoryStateTime::REF  100995960000                       # Time in different power states
system.mem_ctrls_1.memoryStateTime::PRE_PDN            0                       # Time in different power states
system.mem_ctrls_1.memoryStateTime::ACT  608416507249                       # Time in different power states
system.mem_ctrls_1.memoryStateTime::ACT_PDN            0                       # Time in different power states
system.cpu_voltage_domain.voltage                   1                       # Voltage in Volts
system.cpu_clk_domain.clock                       500                       # Clock period in ticks
system.cpu0.apic_clk_domain.clock                8000                       # Clock period in ticks
system.cpu0.workload.num_syscalls                 272                       # Number of system calls
system.cpu0.numCycles                      6049081484                       # number of cpu cycles simulated
system.cpu0.numWorkItemsStarted                     0                       # number of work items this cpu started
system.cpu0.numWorkItemsCompleted                   0                       # number of work items this cpu completed
system.cpu0.committedInsts                 1677368183                       # Number of instructions committed
system.cpu0.committedOps                   4816109123                       # Number of ops (including micro ops) committed
system.cpu0.num_int_alu_accesses           4542209125                       # Number of integer alu accesses
system.cpu0.num_fp_alu_accesses             116281189                       # Number of float alu accesses
system.cpu0.num_func_calls                  163074936                       # number of times a function call or return occured
system.cpu0.num_conditional_control_insts    370166270                       # number of instructions that are conditional controls
system.cpu0.num_int_insts                  4542209125                       # number of integer instructions
system.cpu0.num_fp_insts                    116281189                       # number of float instructions
system.cpu0.num_int_register_reads         9564895898                       # number of times the integer registers were read
system.cpu0.num_int_register_writes        4532746758                       # number of times the integer registers were written
system.cpu0.num_fp_register_reads           186868429                       # number of times the floating registers were read
system.cpu0.num_fp_register_writes           91388808                       # number of times the floating registers were written
system.cpu0.num_cc_register_reads          3844594137                       # number of times the CC registers were read
system.cpu0.num_cc_register_writes         1442517477                       # number of times the CC registers were written
system.cpu0.num_mem_refs                    727279637                       # number of memory refs
system.cpu0.num_load_insts                  441575470                       # Number of load instructions
system.cpu0.num_store_insts                 285704167                       # Number of store instructions
system.cpu0.num_idle_cycles                  0.002000                       # Number of idle cycles
system.cpu0.num_busy_cycles              6049081483.998000                       # Number of busy cycles
system.cpu0.not_idle_fraction                1.000000                       # Percentage of non-idle cycles
system.cpu0.idle_fraction                    0.000000                       # Percentage of idle cycles
system.cpu0.Branches                        611419232                       # Number of branches fetched
system.cpu0.op_class::No_OpClass             94599445      1.96%      1.96% # Class of executed instruction
system.cpu0.op_class::IntAlu               3495544211     72.58%     74.54% # Class of executed instruction
system.cpu0.op_class::IntMult                     490      0.00%     74.54% # Class of executed instruction
system.cpu0.op_class::IntDiv                407297348      8.46%     83.00% # Class of executed instruction
system.cpu0.op_class::FloatAdd               91387992      1.90%     84.90% # Class of executed instruction
system.cpu0.op_class::FloatCmp                      0      0.00%     84.90% # Class of executed instruction
system.cpu0.op_class::FloatCvt                      0      0.00%     84.90% # Class of executed instruction
system.cpu0.op_class::FloatMult                     0      0.00%     84.90% # Class of executed instruction
system.cpu0.op_class::FloatDiv                      0      0.00%     84.90% # Class of executed instruction
system.cpu0.op_class::FloatSqrt                     0      0.00%     84.90% # Class of executed instruction
system.cpu0.op_class::SimdAdd                       0      0.00%     84.90% # Class of executed instruction
system.cpu0.op_class::SimdAddAcc                    0      0.00%     84.90% # Class of executed instruction
system.cpu0.op_class::SimdAlu                       0      0.00%     84.90% # Class of executed instruction
system.cpu0.op_class::SimdCmp                       0      0.00%     84.90% # Class of executed instruction
system.cpu0.op_class::SimdCvt                       0      0.00%     84.90% # Class of executed instruction
system.cpu0.op_class::SimdMisc                      0      0.00%     84.90% # Class of executed instruction
system.cpu0.op_class::SimdMult                      0      0.00%     84.90% # Class of executed instruction
system.cpu0.op_class::SimdMultAcc                   0      0.00%     84.90% # Class of executed instruction
system.cpu0.op_class::SimdShift                     0      0.00%     84.90% # Class of executed instruction
system.cpu0.op_class::SimdShiftAcc                  0      0.00%     84.90% # Class of executed instruction
system.cpu0.op_class::SimdSqrt                      0      0.00%     84.90% # Class of executed instruction
system.cpu0.op_class::SimdFloatAdd                  0      0.00%     84.90% # Class of executed instruction
system.cpu0.op_class::SimdFloatAlu                  0      0.00%     84.90% # Class of executed instruction
system.cpu0.op_class::SimdFloatCmp                  0      0.00%     84.90% # Class of executed instruction
system.cpu0.op_class::SimdFloatCvt                  0      0.00%     84.90% # Class of executed instruction
system.cpu0.op_class::SimdFloatDiv                  0      0.00%     84.90% # Class of executed instruction
system.cpu0.op_class::SimdFloatMisc                 0      0.00%     84.90% # Class of executed instruction
system.cpu0.op_class::SimdFloatMult                 0      0.00%     84.90% # Class of executed instruction
system.cpu0.op_class::SimdFloatMultAcc              0      0.00%     84.90% # Class of executed instruction
system.cpu0.op_class::SimdFloatSqrt                 0      0.00%     84.90% # Class of executed instruction
system.cpu0.op_class::MemRead               441575470      9.17%     94.07% # Class of executed instruction
system.cpu0.op_class::MemWrite              285704167      5.93%    100.00% # Class of executed instruction
system.cpu0.op_class::IprAccess                     0      0.00%    100.00% # Class of executed instruction
system.cpu0.op_class::InstPrefetch                  0      0.00%    100.00% # Class of executed instruction
system.cpu0.op_class::total                4816109123                       # Class of executed instruction
system.cpu1.apic_clk_domain.clock                8000                       # Clock period in ticks
system.cpu1.numCycles                      6047863378                       # number of cpu cycles simulated
system.cpu1.numWorkItemsStarted                     0                       # number of work items this cpu started
system.cpu1.numWorkItemsCompleted                   0                       # number of work items this cpu completed
system.cpu1.committedInsts                   16277621                       # Number of instructions committed
system.cpu1.committedOps                     32371700                       # Number of ops (including micro ops) committed
system.cpu1.num_int_alu_accesses             25372140                       # Number of integer alu accesses
system.cpu1.num_fp_alu_accesses              17579765                       # Number of float alu accesses
system.cpu1.num_func_calls                      40491                       # number of times a function call or return occured
system.cpu1.num_conditional_control_insts      1783388                       # number of instructions that are conditional controls
system.cpu1.num_int_insts                    25372140                       # number of integer instructions
system.cpu1.num_fp_insts                     17579765                       # number of float instructions
system.cpu1.num_int_register_reads           49037197                       # number of times the integer registers were read
system.cpu1.num_int_register_writes          12986626                       # number of times the integer registers were written
system.cpu1.num_fp_register_reads            24437779                       # number of times the floating registers were read
system.cpu1.num_fp_register_writes           14019328                       # number of times the floating registers were written
system.cpu1.num_cc_register_reads            10720595                       # number of times the CC registers were read
system.cpu1.num_cc_register_writes           10714264                       # number of times the CC registers were written
system.cpu1.num_mem_refs                     10684687                       # number of memory refs
system.cpu1.num_load_insts                    7103938                       # Number of load instructions
system.cpu1.num_store_insts                   3580749                       # Number of store instructions
system.cpu1.num_idle_cycles              5967987958.785301                       # Number of idle cycles
system.cpu1.num_busy_cycles              79875419.214699                       # Number of busy cycles
system.cpu1.not_idle_fraction                0.013207                       # Percentage of non-idle cycles
system.cpu1.idle_fraction                    0.986793                       # Percentage of idle cycles
system.cpu1.Branches                          1845679                       # Number of branches fetched
system.cpu1.op_class::No_OpClass                    2      0.00%      0.00% # Class of executed instruction
system.cpu1.op_class::IntAlu                 14626767     45.18%     45.18% # Class of executed instruction
system.cpu1.op_class::IntMult                   60671      0.19%     45.37% # Class of executed instruction
system.cpu1.op_class::IntDiv                       14      0.00%     45.37% # Class of executed instruction
system.cpu1.op_class::FloatAdd                6999559     21.62%     66.99% # Class of executed instruction
system.cpu1.op_class::FloatCmp                      0      0.00%     66.99% # Class of executed instruction
system.cpu1.op_class::FloatCvt                      0      0.00%     66.99% # Class of executed instruction
system.cpu1.op_class::FloatMult                     0      0.00%     66.99% # Class of executed instruction
system.cpu1.op_class::FloatDiv                      0      0.00%     66.99% # Class of executed instruction
system.cpu1.op_class::FloatSqrt                     0      0.00%     66.99% # Class of executed instruction
system.cpu1.op_class::SimdAdd                       0      0.00%     66.99% # Class of executed instruction
system.cpu1.op_class::SimdAddAcc                    0      0.00%     66.99% # Class of executed instruction
system.cpu1.op_class::SimdAlu                       0      0.00%     66.99% # Class of executed instruction
system.cpu1.op_class::SimdCmp                       0      0.00%     66.99% # Class of executed instruction
system.cpu1.op_class::SimdCvt                       0      0.00%     66.99% # Class of executed instruction
system.cpu1.op_class::SimdMisc                      0      0.00%     66.99% # Class of executed instruction
system.cpu1.op_class::SimdMult                      0      0.00%     66.99% # Class of executed instruction
system.cpu1.op_class::SimdMultAcc                   0      0.00%     66.99% # Class of executed instruction
system.cpu1.op_class::SimdShift                     0      0.00%     66.99% # Class of executed instruction
system.cpu1.op_class::SimdShiftAcc                  0      0.00%     66.99% # Class of executed instruction
system.cpu1.op_class::SimdSqrt                      0      0.00%     66.99% # Class of executed instruction
system.cpu1.op_class::SimdFloatAdd                  0      0.00%     66.99% # Class of executed instruction
system.cpu1.op_class::SimdFloatAlu                  0      0.00%     66.99% # Class of executed instruction
system.cpu1.op_class::SimdFloatCmp                  0      0.00%     66.99% # Class of executed instruction
system.cpu1.op_class::SimdFloatCvt                  0      0.00%     66.99% # Class of executed instruction
system.cpu1.op_class::SimdFloatDiv                  0      0.00%     66.99% # Class of executed instruction
system.cpu1.op_class::SimdFloatMisc                 0      0.00%     66.99% # Class of executed instruction
system.cpu1.op_class::SimdFloatMult                 0      0.00%     66.99% # Class of executed instruction
system.cpu1.op_class::SimdFloatMultAcc              0      0.00%     66.99% # Class of executed instruction
system.cpu1.op_class::SimdFloatSqrt                 0      0.00%     66.99% # Class of executed instruction
system.cpu1.op_class::MemRead                 7103938     21.94%     88.94% # Class of executed instruction
system.cpu1.op_class::MemWrite                3580749     11.06%    100.00% # Class of executed instruction
system.cpu1.op_class::IprAccess                     0      0.00%    100.00% # Class of executed instruction
system.cpu1.op_class::InstPrefetch                  0      0.00%    100.00% # Class of executed instruction
system.cpu1.op_class::total                  32371700                       # Class of executed instruction
system.cpu2.apic_clk_domain.clock                8000                       # Clock period in ticks
system.cpu2.numCycles                      6047939570                       # number of cpu cycles simulated
system.cpu2.numWorkItemsStarted                     0                       # number of work items this cpu started
system.cpu2.numWorkItemsCompleted                   0                       # number of work items this cpu completed
system.cpu2.committedInsts                   16277621                       # Number of instructions committed
system.cpu2.committedOps                     32371700                       # Number of ops (including micro ops) committed
system.cpu2.num_int_alu_accesses             25372140                       # Number of integer alu accesses
system.cpu2.num_fp_alu_accesses              17579765                       # Number of float alu accesses
system.cpu2.num_func_calls                      40491                       # number of times a function call or return occured
system.cpu2.num_conditional_control_insts      1783388                       # number of instructions that are conditional controls
system.cpu2.num_int_insts                    25372140                       # number of integer instructions
system.cpu2.num_fp_insts                     17579765                       # number of float instructions
system.cpu2.num_int_register_reads           49037197                       # number of times the integer registers were read
system.cpu2.num_int_register_writes          12986626                       # number of times the integer registers were written
system.cpu2.num_fp_register_reads            24437779                       # number of times the floating registers were read
system.cpu2.num_fp_register_writes           14019328                       # number of times the floating registers were written
system.cpu2.num_cc_register_reads            10720595                       # number of times the CC registers were read
system.cpu2.num_cc_register_writes           10714264                       # number of times the CC registers were written
system.cpu2.num_mem_refs                     10684687                       # number of memory refs
system.cpu2.num_load_insts                    7103938                       # Number of load instructions
system.cpu2.num_store_insts                   3580749                       # Number of store instructions
system.cpu2.num_idle_cycles              5967987877.712490                       # Number of idle cycles
system.cpu2.num_busy_cycles              79951692.287510                       # Number of busy cycles
system.cpu2.not_idle_fraction                0.013220                       # Percentage of non-idle cycles
system.cpu2.idle_fraction                    0.986780                       # Percentage of idle cycles
system.cpu2.Branches                          1845679                       # Number of branches fetched
system.cpu2.op_class::No_OpClass                    2      0.00%      0.00% # Class of executed instruction
system.cpu2.op_class::IntAlu                 14626767     45.18%     45.18% # Class of executed instruction
system.cpu2.op_class::IntMult                   60671      0.19%     45.37% # Class of executed instruction
system.cpu2.op_class::IntDiv                       14      0.00%     45.37% # Class of executed instruction
system.cpu2.op_class::FloatAdd                6999559     21.62%     66.99% # Class of executed instruction
system.cpu2.op_class::FloatCmp                      0      0.00%     66.99% # Class of executed instruction
system.cpu2.op_class::FloatCvt                      0      0.00%     66.99% # Class of executed instruction
system.cpu2.op_class::FloatMult                     0      0.00%     66.99% # Class of executed instruction
system.cpu2.op_class::FloatDiv                      0      0.00%     66.99% # Class of executed instruction
system.cpu2.op_class::FloatSqrt                     0      0.00%     66.99% # Class of executed instruction
system.cpu2.op_class::SimdAdd                       0      0.00%     66.99% # Class of executed instruction
system.cpu2.op_class::SimdAddAcc                    0      0.00%     66.99% # Class of executed instruction
system.cpu2.op_class::SimdAlu                       0      0.00%     66.99% # Class of executed instruction
system.cpu2.op_class::SimdCmp                       0      0.00%     66.99% # Class of executed instruction
system.cpu2.op_class::SimdCvt                       0      0.00%     66.99% # Class of executed instruction
system.cpu2.op_class::SimdMisc                      0      0.00%     66.99% # Class of executed instruction
system.cpu2.op_class::SimdMult                      0      0.00%     66.99% # Class of executed instruction
system.cpu2.op_class::SimdMultAcc                   0      0.00%     66.99% # Class of executed instruction
system.cpu2.op_class::SimdShift                     0      0.00%     66.99% # Class of executed instruction
system.cpu2.op_class::SimdShiftAcc                  0      0.00%     66.99% # Class of executed instruction
system.cpu2.op_class::SimdSqrt                      0      0.00%     66.99% # Class of executed instruction
system.cpu2.op_class::SimdFloatAdd                  0      0.00%     66.99% # Class of executed instruction
system.cpu2.op_class::SimdFloatAlu                  0      0.00%     66.99% # Class of executed instruction
system.cpu2.op_class::SimdFloatCmp                  0      0.00%     66.99% # Class of executed instruction
system.cpu2.op_class::SimdFloatCvt                  0      0.00%     66.99% # Class of executed instruction
system.cpu2.op_class::SimdFloatDiv                  0      0.00%     66.99% # Class of executed instruction
system.cpu2.op_class::SimdFloatMisc                 0      0.00%     66.99% # Class of executed instruction
system.cpu2.op_class::SimdFloatMult                 0      0.00%     66.99% # Class of executed instruction
system.cpu2.op_class::SimdFloatMultAcc              0      0.00%     66.99% # Class of executed instruction
system.cpu2.op_class::SimdFloatSqrt                 0      0.00%     66.99% # Class of executed instruction
system.cpu2.op_class::MemRead                 7103938     21.94%     88.94% # Class of executed instruction
system.cpu2.op_class::MemWrite                3580749     11.06%    100.00% # Class of executed instruction
system.cpu2.op_class::IprAccess                     0      0.00%    100.00% # Class of executed instruction
system.cpu2.op_class::InstPrefetch                  0      0.00%    100.00% # Class of executed instruction
system.cpu2.op_class::total                  32371700                       # Class of executed instruction
system.cpu3.apic_clk_domain.clock                8000                       # Clock period in ticks
system.cpu3.numCycles                      6047768662                       # number of cpu cycles simulated
system.cpu3.numWorkItemsStarted                     0                       # number of work items this cpu started
system.cpu3.numWorkItemsCompleted                   0                       # number of work items this cpu completed
system.cpu3.committedInsts                   16277621                       # Number of instructions committed
system.cpu3.committedOps                     32371700                       # Number of ops (including micro ops) committed
system.cpu3.num_int_alu_accesses             25372140                       # Number of integer alu accesses
system.cpu3.num_fp_alu_accesses              17579765                       # Number of float alu accesses
system.cpu3.num_func_calls                      40491                       # number of times a function call or return occured
system.cpu3.num_conditional_control_insts      1783388                       # number of instructions that are conditional controls
system.cpu3.num_int_insts                    25372140                       # number of integer instructions
system.cpu3.num_fp_insts                     17579765                       # number of float instructions
system.cpu3.num_int_register_reads           49037197                       # number of times the integer registers were read
system.cpu3.num_int_register_writes          12986626                       # number of times the integer registers were written
system.cpu3.num_fp_register_reads            24437779                       # number of times the floating registers were read
system.cpu3.num_fp_register_writes           14019328                       # number of times the floating registers were written
system.cpu3.num_cc_register_reads            10720595                       # number of times the CC registers were read
system.cpu3.num_cc_register_writes           10714264                       # number of times the CC registers were written
system.cpu3.num_mem_refs                     10684687                       # number of memory refs
system.cpu3.num_load_insts                    7103938                       # Number of load instructions
system.cpu3.num_store_insts                   3580749                       # Number of store instructions
system.cpu3.num_idle_cycles              5967990715.832221                       # Number of idle cycles
system.cpu3.num_busy_cycles              79777946.167778                       # Number of busy cycles
system.cpu3.not_idle_fraction                0.013191                       # Percentage of non-idle cycles
system.cpu3.idle_fraction                    0.986809                       # Percentage of idle cycles
system.cpu3.Branches                          1845679                       # Number of branches fetched
system.cpu3.op_class::No_OpClass                    2      0.00%      0.00% # Class of executed instruction
system.cpu3.op_class::IntAlu                 14626767     45.18%     45.18% # Class of executed instruction
system.cpu3.op_class::IntMult                   60671      0.19%     45.37% # Class of executed instruction
system.cpu3.op_class::IntDiv                       14      0.00%     45.37% # Class of executed instruction
system.cpu3.op_class::FloatAdd                6999559     21.62%     66.99% # Class of executed instruction
system.cpu3.op_class::FloatCmp                      0      0.00%     66.99% # Class of executed instruction
system.cpu3.op_class::FloatCvt                      0      0.00%     66.99% # Class of executed instruction
system.cpu3.op_class::FloatMult                     0      0.00%     66.99% # Class of executed instruction
system.cpu3.op_class::FloatDiv                      0      0.00%     66.99% # Class of executed instruction
system.cpu3.op_class::FloatSqrt                     0      0.00%     66.99% # Class of executed instruction
system.cpu3.op_class::SimdAdd                       0      0.00%     66.99% # Class of executed instruction
system.cpu3.op_class::SimdAddAcc                    0      0.00%     66.99% # Class of executed instruction
system.cpu3.op_class::SimdAlu                       0      0.00%     66.99% # Class of executed instruction
system.cpu3.op_class::SimdCmp                       0      0.00%     66.99% # Class of executed instruction
system.cpu3.op_class::SimdCvt                       0      0.00%     66.99% # Class of executed instruction
system.cpu3.op_class::SimdMisc                      0      0.00%     66.99% # Class of executed instruction
system.cpu3.op_class::SimdMult                      0      0.00%     66.99% # Class of executed instruction
system.cpu3.op_class::SimdMultAcc                   0      0.00%     66.99% # Class of executed instruction
system.cpu3.op_class::SimdShift                     0      0.00%     66.99% # Class of executed instruction
system.cpu3.op_class::SimdShiftAcc                  0      0.00%     66.99% # Class of executed instruction
system.cpu3.op_class::SimdSqrt                      0      0.00%     66.99% # Class of executed instruction
system.cpu3.op_class::SimdFloatAdd                  0      0.00%     66.99% # Class of executed instruction
system.cpu3.op_class::SimdFloatAlu                  0      0.00%     66.99% # Class of executed instruction
system.cpu3.op_class::SimdFloatCmp                  0      0.00%     66.99% # Class of executed instruction
system.cpu3.op_class::SimdFloatCvt                  0      0.00%     66.99% # Class of executed instruction
system.cpu3.op_class::SimdFloatDiv                  0      0.00%     66.99% # Class of executed instruction
system.cpu3.op_class::SimdFloatMisc                 0      0.00%     66.99% # Class of executed instruction
system.cpu3.op_class::SimdFloatMult                 0      0.00%     66.99% # Class of executed instruction
system.cpu3.op_class::SimdFloatMultAcc              0      0.00%     66.99% # Class of executed instruction
system.cpu3.op_class::SimdFloatSqrt                 0      0.00%     66.99% # Class of executed instruction
system.cpu3.op_class::MemRead                 7103938     21.94%     88.94% # Class of executed instruction
system.cpu3.op_class::MemWrite                3580749     11.06%    100.00% # Class of executed instruction
system.cpu3.op_class::IprAccess                     0      0.00%    100.00% # Class of executed instruction
system.cpu3.op_class::InstPrefetch                  0      0.00%    100.00% # Class of executed instruction
system.cpu3.op_class::total                  32371700                       # Class of executed instruction
system.cpu4.apic_clk_domain.clock                8000                       # Clock period in ticks
system.cpu4.numCycles                      6048697698                       # number of cpu cycles simulated
system.cpu4.numWorkItemsStarted                     0                       # number of work items this cpu started
system.cpu4.numWorkItemsCompleted                   0                       # number of work items this cpu completed
system.cpu4.committedInsts                   16277621                       # Number of instructions committed
system.cpu4.committedOps                     32371700                       # Number of ops (including micro ops) committed
system.cpu4.num_int_alu_accesses             25372140                       # Number of integer alu accesses
system.cpu4.num_fp_alu_accesses              17579765                       # Number of float alu accesses
system.cpu4.num_func_calls                      40491                       # number of times a function call or return occured
system.cpu4.num_conditional_control_insts      1783388                       # number of instructions that are conditional controls
system.cpu4.num_int_insts                    25372140                       # number of integer instructions
system.cpu4.num_fp_insts                     17579765                       # number of float instructions
system.cpu4.num_int_register_reads           49037197                       # number of times the integer registers were read
system.cpu4.num_int_register_writes          12986626                       # number of times the integer registers were written
system.cpu4.num_fp_register_reads            24437779                       # number of times the floating registers were read
system.cpu4.num_fp_register_writes           14019328                       # number of times the floating registers were written
system.cpu4.num_cc_register_reads            10720595                       # number of times the CC registers were read
system.cpu4.num_cc_register_writes           10714264                       # number of times the CC registers were written
system.cpu4.num_mem_refs                     10684687                       # number of memory refs
system.cpu4.num_load_insts                    7103938                       # Number of load instructions
system.cpu4.num_store_insts                   3580749                       # Number of store instructions
system.cpu4.num_idle_cycles              5967979571.513522                       # Number of idle cycles
system.cpu4.num_busy_cycles              80718126.486478                       # Number of busy cycles
system.cpu4.not_idle_fraction                0.013345                       # Percentage of non-idle cycles
system.cpu4.idle_fraction                    0.986655                       # Percentage of idle cycles
system.cpu4.Branches                          1845679                       # Number of branches fetched
system.cpu4.op_class::No_OpClass                    2      0.00%      0.00% # Class of executed instruction
system.cpu4.op_class::IntAlu                 14626767     45.18%     45.18% # Class of executed instruction
system.cpu4.op_class::IntMult                   60671      0.19%     45.37% # Class of executed instruction
system.cpu4.op_class::IntDiv                       14      0.00%     45.37% # Class of executed instruction
system.cpu4.op_class::FloatAdd                6999559     21.62%     66.99% # Class of executed instruction
system.cpu4.op_class::FloatCmp                      0      0.00%     66.99% # Class of executed instruction
system.cpu4.op_class::FloatCvt                      0      0.00%     66.99% # Class of executed instruction
system.cpu4.op_class::FloatMult                     0      0.00%     66.99% # Class of executed instruction
system.cpu4.op_class::FloatDiv                      0      0.00%     66.99% # Class of executed instruction
system.cpu4.op_class::FloatSqrt                     0      0.00%     66.99% # Class of executed instruction
system.cpu4.op_class::SimdAdd                       0      0.00%     66.99% # Class of executed instruction
system.cpu4.op_class::SimdAddAcc                    0      0.00%     66.99% # Class of executed instruction
system.cpu4.op_class::SimdAlu                       0      0.00%     66.99% # Class of executed instruction
system.cpu4.op_class::SimdCmp                       0      0.00%     66.99% # Class of executed instruction
system.cpu4.op_class::SimdCvt                       0      0.00%     66.99% # Class of executed instruction
system.cpu4.op_class::SimdMisc                      0      0.00%     66.99% # Class of executed instruction
system.cpu4.op_class::SimdMult                      0      0.00%     66.99% # Class of executed instruction
system.cpu4.op_class::SimdMultAcc                   0      0.00%     66.99% # Class of executed instruction
system.cpu4.op_class::SimdShift                     0      0.00%     66.99% # Class of executed instruction
system.cpu4.op_class::SimdShiftAcc                  0      0.00%     66.99% # Class of executed instruction
system.cpu4.op_class::SimdSqrt                      0      0.00%     66.99% # Class of executed instruction
system.cpu4.op_class::SimdFloatAdd                  0      0.00%     66.99% # Class of executed instruction
system.cpu4.op_class::SimdFloatAlu                  0      0.00%     66.99% # Class of executed instruction
system.cpu4.op_class::SimdFloatCmp                  0      0.00%     66.99% # Class of executed instruction
system.cpu4.op_class::SimdFloatCvt                  0      0.00%     66.99% # Class of executed instruction
system.cpu4.op_class::SimdFloatDiv                  0      0.00%     66.99% # Class of executed instruction
system.cpu4.op_class::SimdFloatMisc                 0      0.00%     66.99% # Class of executed instruction
system.cpu4.op_class::SimdFloatMult                 0      0.00%     66.99% # Class of executed instruction
system.cpu4.op_class::SimdFloatMultAcc              0      0.00%     66.99% # Class of executed instruction
system.cpu4.op_class::SimdFloatSqrt                 0      0.00%     66.99% # Class of executed instruction
system.cpu4.op_class::MemRead                 7103938     21.94%     88.94% # Class of executed instruction
system.cpu4.op_class::MemWrite                3580749     11.06%    100.00% # Class of executed instruction
system.cpu4.op_class::IprAccess                     0      0.00%    100.00% # Class of executed instruction
system.cpu4.op_class::InstPrefetch                  0      0.00%    100.00% # Class of executed instruction
system.cpu4.op_class::total                  32371700                       # Class of executed instruction
system.cpu5.apic_clk_domain.clock                8000                       # Clock period in ticks
system.cpu5.numCycles                      6045532993                       # number of cpu cycles simulated
system.cpu5.numWorkItemsStarted                     0                       # number of work items this cpu started
system.cpu5.numWorkItemsCompleted                   0                       # number of work items this cpu completed
system.cpu5.committedInsts                   16277621                       # Number of instructions committed
system.cpu5.committedOps                     32371700                       # Number of ops (including micro ops) committed
system.cpu5.num_int_alu_accesses             25372140                       # Number of integer alu accesses
system.cpu5.num_fp_alu_accesses              17579765                       # Number of float alu accesses
system.cpu5.num_func_calls                      40491                       # number of times a function call or return occured
system.cpu5.num_conditional_control_insts      1783388                       # number of instructions that are conditional controls
system.cpu5.num_int_insts                    25372140                       # number of integer instructions
system.cpu5.num_fp_insts                     17579765                       # number of float instructions
system.cpu5.num_int_register_reads           49037197                       # number of times the integer registers were read
system.cpu5.num_int_register_writes          12986626                       # number of times the integer registers were written
system.cpu5.num_fp_register_reads            24437779                       # number of times the floating registers were read
system.cpu5.num_fp_register_writes           14019328                       # number of times the floating registers were written
system.cpu5.num_cc_register_reads            10720595                       # number of times the CC registers were read
system.cpu5.num_cc_register_writes           10714264                       # number of times the CC registers were written
system.cpu5.num_mem_refs                     10684687                       # number of memory refs
system.cpu5.num_load_insts                    7103938                       # Number of load instructions
system.cpu5.num_store_insts                   3580749                       # Number of store instructions
system.cpu5.num_idle_cycles              5968020958.527303                       # Number of idle cycles
system.cpu5.num_busy_cycles              77512034.472698                       # Number of busy cycles
system.cpu5.not_idle_fraction                0.012821                       # Percentage of non-idle cycles
system.cpu5.idle_fraction                    0.987179                       # Percentage of idle cycles
system.cpu5.Branches                          1845679                       # Number of branches fetched
system.cpu5.op_class::No_OpClass                    2      0.00%      0.00% # Class of executed instruction
system.cpu5.op_class::IntAlu                 14626767     45.18%     45.18% # Class of executed instruction
system.cpu5.op_class::IntMult                   60671      0.19%     45.37% # Class of executed instruction
system.cpu5.op_class::IntDiv                       14      0.00%     45.37% # Class of executed instruction
system.cpu5.op_class::FloatAdd                6999559     21.62%     66.99% # Class of executed instruction
system.cpu5.op_class::FloatCmp                      0      0.00%     66.99% # Class of executed instruction
system.cpu5.op_class::FloatCvt                      0      0.00%     66.99% # Class of executed instruction
system.cpu5.op_class::FloatMult                     0      0.00%     66.99% # Class of executed instruction
system.cpu5.op_class::FloatDiv                      0      0.00%     66.99% # Class of executed instruction
system.cpu5.op_class::FloatSqrt                     0      0.00%     66.99% # Class of executed instruction
system.cpu5.op_class::SimdAdd                       0      0.00%     66.99% # Class of executed instruction
system.cpu5.op_class::SimdAddAcc                    0      0.00%     66.99% # Class of executed instruction
system.cpu5.op_class::SimdAlu                       0      0.00%     66.99% # Class of executed instruction
system.cpu5.op_class::SimdCmp                       0      0.00%     66.99% # Class of executed instruction
system.cpu5.op_class::SimdCvt                       0      0.00%     66.99% # Class of executed instruction
system.cpu5.op_class::SimdMisc                      0      0.00%     66.99% # Class of executed instruction
system.cpu5.op_class::SimdMult                      0      0.00%     66.99% # Class of executed instruction
system.cpu5.op_class::SimdMultAcc                   0      0.00%     66.99% # Class of executed instruction
system.cpu5.op_class::SimdShift                     0      0.00%     66.99% # Class of executed instruction
system.cpu5.op_class::SimdShiftAcc                  0      0.00%     66.99% # Class of executed instruction
system.cpu5.op_class::SimdSqrt                      0      0.00%     66.99% # Class of executed instruction
system.cpu5.op_class::SimdFloatAdd                  0      0.00%     66.99% # Class of executed instruction
system.cpu5.op_class::SimdFloatAlu                  0      0.00%     66.99% # Class of executed instruction
system.cpu5.op_class::SimdFloatCmp                  0      0.00%     66.99% # Class of executed instruction
system.cpu5.op_class::SimdFloatCvt                  0      0.00%     66.99% # Class of executed instruction
system.cpu5.op_class::SimdFloatDiv                  0      0.00%     66.99% # Class of executed instruction
system.cpu5.op_class::SimdFloatMisc                 0      0.00%     66.99% # Class of executed instruction
system.cpu5.op_class::SimdFloatMult                 0      0.00%     66.99% # Class of executed instruction
system.cpu5.op_class::SimdFloatMultAcc              0      0.00%     66.99% # Class of executed instruction
system.cpu5.op_class::SimdFloatSqrt                 0      0.00%     66.99% # Class of executed instruction
system.cpu5.op_class::MemRead                 7103938     21.94%     88.94% # Class of executed instruction
system.cpu5.op_class::MemWrite                3580749     11.06%    100.00% # Class of executed instruction
system.cpu5.op_class::IprAccess                     0      0.00%    100.00% # Class of executed instruction
system.cpu5.op_class::InstPrefetch                  0      0.00%    100.00% # Class of executed instruction
system.cpu5.op_class::total                  32371700                       # Class of executed instruction
system.cpu6.apic_clk_domain.clock                8000                       # Clock period in ticks
system.cpu6.numCycles                      6046867252                       # number of cpu cycles simulated
system.cpu6.numWorkItemsStarted                     0                       # number of work items this cpu started
system.cpu6.numWorkItemsCompleted                   0                       # number of work items this cpu completed
system.cpu6.committedInsts                   16277621                       # Number of instructions committed
system.cpu6.committedOps                     32371700                       # Number of ops (including micro ops) committed
system.cpu6.num_int_alu_accesses             25372140                       # Number of integer alu accesses
system.cpu6.num_fp_alu_accesses              17579765                       # Number of float alu accesses
system.cpu6.num_func_calls                      40491                       # number of times a function call or return occured
system.cpu6.num_conditional_control_insts      1783388                       # number of instructions that are conditional controls
system.cpu6.num_int_insts                    25372140                       # number of integer instructions
system.cpu6.num_fp_insts                     17579765                       # number of float instructions
system.cpu6.num_int_register_reads           49037197                       # number of times the integer registers were read
system.cpu6.num_int_register_writes          12986626                       # number of times the integer registers were written
system.cpu6.num_fp_register_reads            24437779                       # number of times the floating registers were read
system.cpu6.num_fp_register_writes           14019328                       # number of times the floating registers were written
system.cpu6.num_cc_register_reads            10720595                       # number of times the CC registers were read
system.cpu6.num_cc_register_writes           10714264                       # number of times the CC registers were written
system.cpu6.num_mem_refs                     10684687                       # number of memory refs
system.cpu6.num_load_insts                    7103938                       # Number of load instructions
system.cpu6.num_store_insts                   3580749                       # Number of store instructions
system.cpu6.num_idle_cycles              5968005314.535821                       # Number of idle cycles
system.cpu6.num_busy_cycles              78861937.464179                       # Number of busy cycles
system.cpu6.not_idle_fraction                0.013042                       # Percentage of non-idle cycles
system.cpu6.idle_fraction                    0.986958                       # Percentage of idle cycles
system.cpu6.Branches                          1845679                       # Number of branches fetched
system.cpu6.op_class::No_OpClass                    2      0.00%      0.00% # Class of executed instruction
system.cpu6.op_class::IntAlu                 14626767     45.18%     45.18% # Class of executed instruction
system.cpu6.op_class::IntMult                   60671      0.19%     45.37% # Class of executed instruction
system.cpu6.op_class::IntDiv                       14      0.00%     45.37% # Class of executed instruction
system.cpu6.op_class::FloatAdd                6999559     21.62%     66.99% # Class of executed instruction
system.cpu6.op_class::FloatCmp                      0      0.00%     66.99% # Class of executed instruction
system.cpu6.op_class::FloatCvt                      0      0.00%     66.99% # Class of executed instruction
system.cpu6.op_class::FloatMult                     0      0.00%     66.99% # Class of executed instruction
system.cpu6.op_class::FloatDiv                      0      0.00%     66.99% # Class of executed instruction
system.cpu6.op_class::FloatSqrt                     0      0.00%     66.99% # Class of executed instruction
system.cpu6.op_class::SimdAdd                       0      0.00%     66.99% # Class of executed instruction
system.cpu6.op_class::SimdAddAcc                    0      0.00%     66.99% # Class of executed instruction
system.cpu6.op_class::SimdAlu                       0      0.00%     66.99% # Class of executed instruction
system.cpu6.op_class::SimdCmp                       0      0.00%     66.99% # Class of executed instruction
system.cpu6.op_class::SimdCvt                       0      0.00%     66.99% # Class of executed instruction
system.cpu6.op_class::SimdMisc                      0      0.00%     66.99% # Class of executed instruction
system.cpu6.op_class::SimdMult                      0      0.00%     66.99% # Class of executed instruction
system.cpu6.op_class::SimdMultAcc                   0      0.00%     66.99% # Class of executed instruction
system.cpu6.op_class::SimdShift                     0      0.00%     66.99% # Class of executed instruction
system.cpu6.op_class::SimdShiftAcc                  0      0.00%     66.99% # Class of executed instruction
system.cpu6.op_class::SimdSqrt                      0      0.00%     66.99% # Class of executed instruction
system.cpu6.op_class::SimdFloatAdd                  0      0.00%     66.99% # Class of executed instruction
system.cpu6.op_class::SimdFloatAlu                  0      0.00%     66.99% # Class of executed instruction
system.cpu6.op_class::SimdFloatCmp                  0      0.00%     66.99% # Class of executed instruction
system.cpu6.op_class::SimdFloatCvt                  0      0.00%     66.99% # Class of executed instruction
system.cpu6.op_class::SimdFloatDiv                  0      0.00%     66.99% # Class of executed instruction
system.cpu6.op_class::SimdFloatMisc                 0      0.00%     66.99% # Class of executed instruction
system.cpu6.op_class::SimdFloatMult                 0      0.00%     66.99% # Class of executed instruction
system.cpu6.op_class::SimdFloatMultAcc              0      0.00%     66.99% # Class of executed instruction
system.cpu6.op_class::SimdFloatSqrt                 0      0.00%     66.99% # Class of executed instruction
system.cpu6.op_class::MemRead                 7103938     21.94%     88.94% # Class of executed instruction
system.cpu6.op_class::MemWrite                3580749     11.06%    100.00% # Class of executed instruction
system.cpu6.op_class::IprAccess                     0      0.00%    100.00% # Class of executed instruction
system.cpu6.op_class::InstPrefetch                  0      0.00%    100.00% # Class of executed instruction
system.cpu6.op_class::total                  32371700                       # Class of executed instruction
system.cpu7.apic_clk_domain.clock                8000                       # Clock period in ticks
system.cpu7.numCycles                      6048496199                       # number of cpu cycles simulated
system.cpu7.numWorkItemsStarted                     0                       # number of work items this cpu started
system.cpu7.numWorkItemsCompleted                   0                       # number of work items this cpu completed
system.cpu7.committedInsts                   16277621                       # Number of instructions committed
[...]
system.ruby.L1Cache_Controller.M.L0_Invalidate_Own::total          883                      
system.ruby.L1Cache_Controller.M.L0_Invalidate_Else |        1007     82.14%     82.14% |          20      1.63%     83.77% |          19      1.55%     85.32% |          33      2.69%     88.01% |          10      0.82%     88.83% |          23      1.88%     90.70% |           8      0.65%     91.35% |          85      6.93%     98.29% |          21      1.71%    100.00%
system.ruby.L1Cache_Controller.M.L0_Invalidate_Else::total         1226                      
system.ruby.L1Cache_Controller.MM.Load   |         225      0.04%      0.04% |       72940     12.75%     12.79% |       69741     12.19%     24.98% |       72049     12.59%     37.57% |       68508     11.97%     49.54% |       72220     12.62%     62.17% |       72221     12.62%     74.79% |       72119     12.61%     87.40% |       72114     12.60%    100.00%
system.ruby.L1Cache_Controller.MM.Load::total       572137                      
system.ruby.L1Cache_Controller.MM.Store  |          76    100.00%    100.00% |           0      0.00%    100.00% |           0      0.00%    100.00% |           0      0.00%    100.00% |           0      0.00%    100.00% |           0      0.00%    100.00% |           0      0.00%    100.00% |           0      0.00%    100.00% |           0      0.00%    100.00%
system.ruby.L1Cache_Controller.MM.Store::total           76                      
system.ruby.L1Cache_Controller.MM.Inv    |         361      0.35%      0.35% |       20382     20.00%     20.36% |       14860     14.58%     34.94% |       11714     11.50%     46.44% |       16514     16.21%     62.65% |        2518      2.47%     65.12% |        1876      1.84%     66.96% |       24903     24.44%     91.40% |        8765      8.60%    100.00%
system.ruby.L1Cache_Controller.MM.Inv::total       101893                      
system.ruby.L1Cache_Controller.MM.L1_Replacement |     2281755     55.53%     55.53% |      217508      5.29%     60.82% |      226203      5.50%     66.33% |      227148      5.53%     71.86% |      225749      5.49%     77.35% |      250142      6.09%     83.44% |      236823      5.76%     89.20% |      213901      5.21%     94.41% |      229891      5.59%    100.00%
system.ruby.L1Cache_Controller.MM.L1_Replacement::total      4109120                      
system.ruby.L1Cache_Controller.MM.Fwd_GETX |           0      0.00%      0.00% |           3     13.04%     13.04% |           4     17.39%     30.43% |           3     13.04%     43.48% |           2      8.70%     52.17% |           3     13.04%     65.22% |           4     17.39%     82.61% |           3     13.04%     95.65% |           1      4.35%    100.00%
system.ruby.L1Cache_Controller.MM.Fwd_GETX::total           23                      
system.ruby.L1Cache_Controller.MM.Fwd_GETS |        7752      5.92%      5.92% |           6      0.00%      5.93% |           2      0.00%      5.93% |           7      0.01%      5.93% |           7      0.01%      5.94% |      109097     83.34%     89.28% |       14015     10.71%     99.99% |           7      0.01%    100.00% |           6      0.00%    100.00%
system.ruby.L1Cache_Controller.MM.Fwd_GETS::total       130899                      
system.ruby.L1Cache_Controller.IS.Data_Exclusive |        7492      0.36%      0.36% |      238066     11.54%     11.91% |      241231     11.70%     23.60% |      239030     11.59%     35.19% |      242428     11.75%     46.95% |      363327     17.62%     64.56% |      252878     12.26%     76.82% |      238967     11.59%     88.41% |      239093     11.59%    100.00%
system.ruby.L1Cache_Controller.IS.Data_Exclusive::total      2062512                      
system.ruby.L1Cache_Controller.IS.DataS_fromL1 |          72      0.05%      0.05% |           7      0.01%      0.06% |          15      0.01%      0.07% |         103      0.08%      0.15% |           8      0.01%      0.15% |        7741      5.83%      5.99% |      110446     83.24%     89.23% |         177      0.13%     89.36% |       14117     10.64%    100.00%
system.ruby.L1Cache_Controller.IS.DataS_fromL1::total       132686                      
system.ruby.L1Cache_Controller.IS.Data_all_Acks |          16      0.00%      0.00% |      134587     16.70%     16.71% |      134518     16.70%     33.40% |      134538     16.70%     50.10% |      134652     16.71%     66.81% |        2422      0.30%     67.11% |       10203      1.27%     68.38% |      134449     16.69%     85.07% |      120324     14.93%    100.00%
system.ruby.L1Cache_Controller.IS.Data_all_Acks::total       805709                      
system.ruby.L1Cache_Controller.IM.Data   |           1    100.00%    100.00% |           0      0.00%    100.00% |           0      0.00%    100.00% |           0      0.00%    100.00% |           0      0.00%    100.00% |           0      0.00%    100.00% |           0      0.00%    100.00% |           0      0.00%    100.00% |           0      0.00%    100.00%
system.ruby.L1Cache_Controller.IM.Data::total            1                      
system.ruby.L1Cache_Controller.IM.Data_all_Acks |     2288241    100.00%    100.00% |          12      0.00%    100.00% |          13      0.00%    100.00% |          16      0.00%    100.00% |          15      0.00%    100.00% |          12      0.00%    100.00% |          13      0.00%    100.00% |          15      0.00%    100.00% |          15      0.00%    100.00%
system.ruby.L1Cache_Controller.IM.Data_all_Acks::total      2288352                      
system.ruby.L1Cache_Controller.SM.Ack    |         150     94.94%     94.94% |           1      0.63%     95.57% |           1      0.63%     96.20% |           1      0.63%     96.84% |           1      0.63%     97.47% |           1      0.63%     98.10% |           1      0.63%     98.73% |           1      0.63%     99.37% |           1      0.63%    100.00%
system.ruby.L1Cache_Controller.SM.Ack::total          158                      
system.ruby.L1Cache_Controller.SM.Ack_all |          76     90.48%     90.48% |           1      1.19%     91.67% |           1      1.19%     92.86% |           1      1.19%     94.05% |           1      1.19%     95.24% |           1      1.19%     96.43% |           1      1.19%     97.62% |           1      1.19%     98.81% |           1      1.19%    100.00%
system.ruby.L1Cache_Controller.SM.Ack_all::total           84                      
system.ruby.L1Cache_Controller.M_I.Inv   |           0      0.00%      0.00% |           0      0.00%      0.00% |           0      0.00%      0.00% |           0      0.00%      0.00% |           1     50.00%     50.00% |           0      0.00%     50.00% |           0      0.00%     50.00% |           0      0.00%     50.00% |           1     50.00%    100.00%
system.ruby.L1Cache_Controller.M_I.Inv::total            2                      
system.ruby.L1Cache_Controller.M_I.Fwd_GETS |           0      0.00%      0.00% |           0      0.00%      0.00% |           0      0.00%      0.00% |           0      0.00%      0.00% |           0      0.00%      0.00% |          44    100.00%    100.00% |           0      0.00%    100.00% |           0      0.00%    100.00% |           0      0.00%    100.00%
system.ruby.L1Cache_Controller.M_I.Fwd_GETS::total           44                      
system.ruby.L1Cache_Controller.M_I.WB_Ack |     2286692     55.58%     55.58% |      217508      5.29%     60.87% |      226203      5.50%     66.37% |      227148      5.52%     71.89% |      225748      5.49%     77.38% |      250098      6.08%     83.46% |      236823      5.76%     89.21% |      213901      5.20%     94.41% |      229890      5.59%    100.00%
system.ruby.L1Cache_Controller.M_I.WB_Ack::total      4114011                      
system.ruby.L1Cache_Controller.SINK_WB_ACK.WB_Ack |           0      0.00%      0.00% |           0      0.00%      0.00% |           0      0.00%      0.00% |           0      0.00%      0.00% |           1      2.17%      2.17% |          44     95.65%     97.83% |           0      0.00%     97.83% |           0      0.00%     97.83% |           1      2.17%    100.00%
system.ruby.L1Cache_Controller.SINK_WB_ACK.WB_Ack::total           46                      
system.ruby.L1Cache_Controller.S_IL0.L0_Invalidate_Own |           5      0.00%      0.00% |      126566     14.45%     14.45% |      126489     14.44%     28.88% |      126611     14.45%     43.33% |      126630     14.45%     57.79% |        3883      0.44%     58.23% |      112711     12.86%     71.09% |      126589     14.45%     85.54% |      126688     14.46%    100.00%
system.ruby.L1Cache_Controller.S_IL0.L0_Invalidate_Own::total       876172                      
system.ruby.L1Cache_Controller.S_IL0.L0_Invalidate_Else |           3      1.63%      1.63% |          21     11.41%     13.04% |          32     17.39%     30.43% |          26     14.13%     44.57% |          22     11.96%     56.52% |          15      8.15%     64.67% |          23     12.50%     77.17% |          27     14.67%     91.85% |          15      8.15%    100.00%
system.ruby.L1Cache_Controller.S_IL0.L0_Invalidate_Else::total          184                      
system.ruby.L1Cache_Controller.S_IL0.L0_Ack |           8      0.00%      0.00% |      126587     14.44%     14.45% |      126521     14.44%     28.88% |      126637     14.45%     43.33% |      126652     14.45%     57.79% |        3898      0.44%     58.23% |      112734     12.86%     71.09% |      126616     14.45%     85.54% |      126703     14.46%    100.00%
system.ruby.L1Cache_Controller.S_IL0.L0_Ack::total       876356                      
system.ruby.L1Cache_Controller.E_IL0.WriteBack |           0      0.00%      0.00% |           0      0.00%      0.00% |           0      0.00%      0.00% |           0      0.00%      0.00% |           1    100.00%    100.00% |           0      0.00%    100.00% |           0      0.00%    100.00% |           0      0.00%    100.00% |           0      0.00%    100.00%
system.ruby.L1Cache_Controller.E_IL0.WriteBack::total            1                      
system.ruby.L1Cache_Controller.E_IL0.L0_DataAck |         838      3.39%      3.39% |        2051      8.29%     11.68% |        7022     28.39%     40.07% |        2122      8.58%     48.65% |        4151     16.78%     65.43% |        2142      8.66%     74.09% |        2095      8.47%     82.56% |        2201      8.90%     91.46% |        2113      8.54%    100.00%
system.ruby.L1Cache_Controller.E_IL0.L0_DataAck::total        24735                      
system.ruby.L1Cache_Controller.E_IL0.L0_Invalidate_Own |        5774     25.62%     25.62% |        2045      9.08%     34.70% |        2102      9.33%     44.03% |        2116      9.39%     53.42% |        2081      9.24%     62.65% |        2108      9.36%     72.01% |        2093      9.29%     81.30% |        2106      9.35%     90.64% |        2108      9.36%    100.00%
system.ruby.L1Cache_Controller.E_IL0.L0_Invalidate_Own::total        22533                      
system.ruby.L1Cache_Controller.E_IL0.L0_Invalidate_Else |          21      0.24%      0.24% |          19      0.21%      0.45% |        4930     55.36%     55.81% |          15      0.17%     55.97% |        2077     23.32%     79.29% |        1449     16.27%     95.56% |          10      0.11%     95.68% |          99      1.11%     96.79% |         286      3.21%    100.00%
system.ruby.L1Cache_Controller.E_IL0.L0_Invalidate_Else::total         8906                      
system.ruby.L1Cache_Controller.E_IL0.L0_Ack |        4957     73.95%     73.95% |          13      0.19%     74.15% |          10      0.15%     74.30% |           9      0.13%     74.43% |           6      0.09%     74.52% |        1415     21.11%     95.63% |           8      0.12%     95.75% |           4      0.06%     95.81% |         281      4.19%    100.00%
system.ruby.L1Cache_Controller.E_IL0.L0_Ack::total         6703                      
system.ruby.L1Cache_Controller.M_IL0.L0_DataAck |        1871     90.08%     90.08% |          19      0.91%     91.00% |          20      0.96%     91.96% |          32      1.54%     93.50% |           8      0.39%     93.89% |          21      1.01%     94.90% |           5      0.24%     95.14% |          82      3.95%     99.09% |          19      0.91%    100.00%
system.ruby.L1Cache_Controller.M_IL0.L0_DataAck::total         2077                      
system.ruby.L1Cache_Controller.M_IL0.L0_Invalidate_Own |         880     99.66%     99.66% |           0      0.00%     99.66% |           1      0.11%     99.77% |           1      0.11%     99.89% |           0      0.00%     99.89% |           0      0.00%     99.89% |           0      0.00%     99.89% |           0      0.00%     99.89% |           1      0.11%    100.00%
system.ruby.L1Cache_Controller.M_IL0.L0_Invalidate_Own::total          883                      
system.ruby.L1Cache_Controller.M_IL0.L0_Invalidate_Else |        1007     82.14%     82.14% |          20      1.63%     83.77% |          19      1.55%     85.32% |          33      2.69%     88.01% |          10      0.82%     88.83% |          23      1.88%     90.70% |           8      0.65%     91.35% |          85      6.93%     98.29% |          21      1.71%    100.00%
system.ruby.L1Cache_Controller.M_IL0.L0_Invalidate_Else::total         1226                      
system.ruby.L1Cache_Controller.M_IL0.L0_Ack |          16     50.00%     50.00% |           1      3.12%     53.12% |           0      0.00%     53.12% |           2      6.25%     59.38% |           2      6.25%     65.62% |           2      6.25%     71.88% |           3      9.38%     81.25% |           3      9.38%     90.62% |           3      9.38%    100.00%
system.ruby.L1Cache_Controller.M_IL0.L0_Ack::total           32                      
system.ruby.L1Cache_Controller.MM_IL0.Inv |           0      0.00%      0.00% |           0      0.00%      0.00% |           0      0.00%      0.00% |           0      0.00%      0.00% |           1    100.00%    100.00% |           0      0.00%    100.00% |           0      0.00%    100.00% |           0      0.00%    100.00% |           0      0.00%    100.00%
system.ruby.L1Cache_Controller.MM_IL0.Inv::total            1                      
system.ruby.L1Cache_Controller.MM_IL0.L0_Ack |           0      0.00%      0.00% |           0      0.00%      0.00% |           0      0.00%      0.00% |           0      0.00%      0.00% |           1    100.00%    100.00% |           0      0.00%    100.00% |           0      0.00%    100.00% |           0      0.00%    100.00% |           0      0.00%    100.00%
system.ruby.L1Cache_Controller.MM_IL0.L0_Ack::total            1                      
system.ruby.L2Cache_Controller.L1_GETS        3000941      0.00%      0.00%
system.ruby.L2Cache_Controller.L1_GETX        2288360      0.00%      0.00%
system.ruby.L2Cache_Controller.L1_UPGRADE           83      0.00%      0.00%
system.ruby.L2Cache_Controller.L1_PUTX        4114099      0.00%      0.00%
system.ruby.L2Cache_Controller.L1_PUTX_old            4      0.00%      0.00%
system.ruby.L2Cache_Controller.L2_Replacement       901137      0.00%      0.00%
system.ruby.L2Cache_Controller.L2_Replacement_clean       103402      0.00%      0.00%
system.ruby.L2Cache_Controller.Mem_Data       1659899      0.00%      0.00%
system.ruby.L2Cache_Controller.Mem_Ack        1004539      0.00%      0.00%
system.ruby.L2Cache_Controller.WB_Data         108700      0.00%      0.00%
system.ruby.L2Cache_Controller.WB_Data_clean       125881      0.00%      0.00%
system.ruby.L2Cache_Controller.Ack               3396      0.00%      0.00%
system.ruby.L2Cache_Controller.Ack_all            510      0.00%      0.00%
system.ruby.L2Cache_Controller.Unblock         132686      0.00%      0.00%
system.ruby.L2Cache_Controller.Exclusive_Unblock      4350948      0.00%      0.00%
system.ruby.L2Cache_Controller.NP.L1_GETS       300504      0.00%      0.00%
system.ruby.L2Cache_Controller.NP.L1_GETX      1359395      0.00%      0.00%
system.ruby.L2Cache_Controller.NP.L1_PUTX_old            2      0.00%      0.00%
system.ruby.L2Cache_Controller.SS.L1_GETS       805639      0.00%      0.00%
system.ruby.L2Cache_Controller.SS.L1_GETX            1      0.00%      0.00%
system.ruby.L2Cache_Controller.SS.L1_UPGRADE           83      0.00%      0.00%
system.ruby.L2Cache_Controller.SS.L1_PUTX           44      0.00%      0.00%
system.ruby.L2Cache_Controller.SS.L2_Replacement           20      0.00%      0.00%
system.ruby.L2Cache_Controller.SS.L2_Replacement_clean          473      0.00%      0.00%
system.ruby.L2Cache_Controller.M.L1_GETS      1762027      0.00%      0.00%
system.ruby.L2Cache_Controller.M.L1_GETX       928931      0.00%      0.00%
system.ruby.L2Cache_Controller.M.L2_Replacement       898634      0.00%      0.00%
system.ruby.L2Cache_Controller.M.L2_Replacement_clean         3500      0.00%      0.00%
system.ruby.L2Cache_Controller.MT.L1_GETS       132686      0.00%      0.00%
system.ruby.L2Cache_Controller.MT.L1_GETX           26      0.00%      0.00%
system.ruby.L2Cache_Controller.MT.L1_PUTX      4114011      0.00%      0.00%
system.ruby.L2Cache_Controller.MT.L2_Replacement         2483      0.00%      0.00%
system.ruby.L2Cache_Controller.MT.L2_Replacement_clean        99429      0.00%      0.00%
system.ruby.L2Cache_Controller.M_I.L1_GETS            2      0.00%      0.00%
system.ruby.L2Cache_Controller.M_I.L1_GETX            1      0.00%      0.00%
system.ruby.L2Cache_Controller.M_I.Mem_Ack      1004539      0.00%      0.00%
system.ruby.L2Cache_Controller.MT_I.L1_PUTX_old            1      0.00%      0.00%
system.ruby.L2Cache_Controller.MT_I.WB_Data         2483      0.00%      0.00%
system.ruby.L2Cache_Controller.MCT_I.L1_PUTX_old            1      0.00%      0.00%
system.ruby.L2Cache_Controller.MCT_I.WB_Data        96679      0.00%      0.00%
system.ruby.L2Cache_Controller.MCT_I.WB_Data_clean         2733      0.00%      0.00%
system.ruby.L2Cache_Controller.MCT_I.Ack_all           17      0.00%      0.00%
system.ruby.L2Cache_Controller.I_I.Ack           3312      0.00%      0.00%
system.ruby.L2Cache_Controller.I_I.Ack_all          473      0.00%      0.00%
system.ruby.L2Cache_Controller.S_I.Ack             84      0.00%      0.00%
system.ruby.L2Cache_Controller.S_I.Ack_all           20      0.00%      0.00%
system.ruby.L2Cache_Controller.ISS.L1_GETS           19      0.00%      0.00%
system.ruby.L2Cache_Controller.ISS.Mem_Data       300485      0.00%      0.00%
system.ruby.L2Cache_Controller.IS.L1_GETS           32      0.00%      0.00%
system.ruby.L2Cache_Controller.IS.Mem_Data           19      0.00%      0.00%
system.ruby.L2Cache_Controller.IM.L1_GETX            3      0.00%      0.00%
system.ruby.L2Cache_Controller.IM.Mem_Data      1359395      0.00%      0.00%
system.ruby.L2Cache_Controller.SS_MB.Exclusive_Unblock           84      0.00%      0.00%
system.ruby.L2Cache_Controller.MT_MB.L1_GETS           16      0.00%      0.00%
system.ruby.L2Cache_Controller.MT_MB.L1_GETX            3      0.00%      0.00%
system.ruby.L2Cache_Controller.MT_MB.Exclusive_Unblock      4350864      0.00%      0.00%
system.ruby.L2Cache_Controller.MT_IIB.L1_GETS           16      0.00%      0.00%
system.ruby.L2Cache_Controller.MT_IIB.L1_PUTX           44      0.00%      0.00%
system.ruby.L2Cache_Controller.MT_IIB.WB_Data         9470      0.00%      0.00%
system.ruby.L2Cache_Controller.MT_IIB.WB_Data_clean       122899      0.00%      0.00%
system.ruby.L2Cache_Controller.MT_IIB.Unblock          317      0.00%      0.00%
system.ruby.L2Cache_Controller.MT_IB.WB_Data           68      0.00%      0.00%
system.ruby.L2Cache_Controller.MT_IB.WB_Data_clean          249      0.00%      0.00%
system.ruby.L2Cache_Controller.MT_SB.Unblock       132369      0.00%      0.00%

---------- End Simulation Statistics   ----------
