MODELOPTS=--forwardsparsity 24 --activationcachelinesparsity 8 --backwardsparsity 84 --signalcachelinesparsity 83 --weightupdatesparsity 89 --deltacachelinesparsity 67 --model CIFAR10
CacheSizeOpts=--l1i_size=32kB --l1d_size=32kB --l2_size=256kB --l3_size=20MB
Run SparseCompute in GEM5-Ruby
GEM5=/home/tunji/sc-dnn/code/gem5-stable/build/X86_MESI_Three_Level/gem5.opt
SCRIPT=/home/tunji/sc-dnn/code/gem5-stable/configs/example/se.py
PROGDIR=/home/tunji/sc-dnn/code/SparseCompute
PROGOPTS=--samples 8 --threads 8 --forwardsparsity 24 --activationcachelinesparsity 8 --backwardsparsity 84 --signalcachelinesparsity 83 --weightupdatesparsity 89 --deltacachelinesparsity 67 --model CIFAR10 --workers 1 --pass ForwardProp --outputscale 4
SIMOPTS=--ruby --cpu-type=timing --caches --l2cache --num-l3caches=1 --l1d_size=32kB --l1i_size=32kB --l2_size=256kB --l3_size=20MB --num-cpus=9
gem5 Simulator System.  http://gem5.org
gem5 is copyrighted software; use the --copyright option for details.

gem5 compiled Nov 19 2015 16:07:41
gem5 started Nov 23 2015 06:27:33
gem5 executing on tunji-Virtual-Machine
command line: /home/tunji/sc-dnn/code/gem5-stable/build/X86_MESI_Three_Level/gem5.opt -d Output/CIFAR10_1W-L3-S8_T8_C1/ /home/tunji/sc-dnn/code/gem5-stable/configs/example/se.py --ruby --cpu-type=timing --caches --l2cache --num-l3caches=1 --l1d_size=32kB --l1i_size=32kB --l2_size=256kB --l3_size=20MB --num-cpus=9 -c /home/tunji/sc-dnn/code/SparseCompute/M5SparseCompute -o --kernel 1 --samples 8 --threads 8 --forwardsparsity 24 --activationcachelinesparsity 8 --backwardsparsity 84 --signalcachelinesparsity 83 --weightupdatesparsity 89 --deltacachelinesparsity 67 --model CIFAR10 --workers 1 --pass ForwardProp --outputscale 4
Global frequency set at 1000000000000 ticks per second
warn: DRAM device capacity (8192 Mbytes) does not match the address range assigned (512 Mbytes)
0: system.remote_gdb.listener: listening for remote gdb #0 on port 7016
0: system.remote_gdb.listener: listening for remote gdb #1 on port 7018
0: system.remote_gdb.listener: listening for remote gdb #2 on port 7020
0: system.remote_gdb.listener: listening for remote gdb #3 on port 7022
0: system.remote_gdb.listener: listening for remote gdb #4 on port 7024
0: system.remote_gdb.listener: listening for remote gdb #5 on port 7026
0: system.remote_gdb.listener: listening for remote gdb #6 on port 7028
0: system.remote_gdb.listener: listening for remote gdb #7 on port 7030
0: system.remote_gdb.listener: listening for remote gdb #8 on port 7032
**** REAL SIMULATION ****
info: Entering event queue @ 0.  Starting simulation...
info: Increasing stack size by one page.
warn: ignoring syscall access(5373889, ...)
Model: CIFAR10 
Pass: ForwardProp 
WorkerCount: 1 
ThreadCount: 8 
SampleCount: 8 
ThreadModel: 1 
OutputScale: 4
KernelVersion: UNROLL
FeedForwardSparsity: 24
ActivationCacheLineSparsity: 8
BackPropSparsity: 84
SignalCacheLineSparsity: 83
WeightUpdateSparsity: 89
DeltaCacheLineSparsity: 67
Layers     Threads    GFLOP/s    MSec       FLOPs     
ForwardProp:  4.19 msecs
         0          8       3.28   0.748391 2457600
         1          8       3.30   2.234219 7372800
         2          8       3.44   0.605281 2080768
         3          8       3.50   0.598969 2097152
         4          8       1.65   0.006219 10240
Pass_run_time: 0.034293secs
Total_run_time: 0.034293secs
Exiting @ tick 3028563503000 because target called exit()
