
---------- Begin Simulation Statistics ----------
sim_seconds                                  2.607500                       # Number of seconds simulated
sim_ticks                                2607499605500                       # Number of ticks simulated
final_tick                               2607499605500                       # Number of ticks from beginning of simulation (restored from checkpoints and never reset)
sim_freq                                 1000000000000                       # Frequency of simulated ticks
host_inst_rate                                 127231                       # Simulator instruction rate (inst/s)
host_op_rate                                   274647                       # Simulator op (including micro ops) rate (op/s)
host_tick_rate                              179984509                       # Simulator tick rate (ticks/s)
host_mem_usage                                1670416                       # Number of bytes of host memory used
host_seconds                                 14487.36                       # Real time elapsed on the host
sim_insts                                  1843234771                       # Number of instructions simulated
sim_ops                                    3978907533                       # Number of ops (including micro ops) simulated
system.voltage_domain.voltage                       1                       # Voltage in Volts
system.clk_domain.clock                          1000                       # Clock period in ticks
system.mem_ctrls.bytes_read::ruby.dir_cntrl0    341770944                       # Number of bytes read from this memory
system.mem_ctrls.bytes_read::total          341770944                       # Number of bytes read from this memory
system.mem_ctrls.bytes_written::ruby.dir_cntrl0    144210048                       # Number of bytes written to this memory
system.mem_ctrls.bytes_written::total       144210048                       # Number of bytes written to this memory
system.mem_ctrls.num_reads::ruby.dir_cntrl0      5340171                       # Number of read requests responded to by this memory
system.mem_ctrls.num_reads::total             5340171                       # Number of read requests responded to by this memory
system.mem_ctrls.num_writes::ruby.dir_cntrl0      2253282                       # Number of write requests responded to by this memory
system.mem_ctrls.num_writes::total            2253282                       # Number of write requests responded to by this memory
system.mem_ctrls.bw_read::ruby.dir_cntrl0    131072290                       # Total read bandwidth from this memory (bytes/s)
system.mem_ctrls.bw_read::total             131072290                       # Total read bandwidth from this memory (bytes/s)
system.mem_ctrls.bw_write::ruby.dir_cntrl0     55305875                       # Write bandwidth from this memory (bytes/s)
system.mem_ctrls.bw_write::total             55305875                       # Write bandwidth from this memory (bytes/s)
system.mem_ctrls.bw_total::ruby.dir_cntrl0    186378165                       # Total bandwidth to/from this memory (bytes/s)
system.mem_ctrls.bw_total::total            186378165                       # Total bandwidth to/from this memory (bytes/s)
system.mem_ctrls.readReqs                     5340171                       # Number of read requests accepted
system.mem_ctrls.writeReqs                    2253282                       # Number of write requests accepted
system.mem_ctrls.readBursts                   5340171                       # Number of DRAM read bursts, including those serviced by the write queue
system.mem_ctrls.writeBursts                  2253282                       # Number of DRAM write bursts, including those merged in the write queue
system.mem_ctrls.bytesReadDRAM              341765568                       # Total number of bytes read from DRAM
system.mem_ctrls.bytesReadWrQ                    5376                       # Total number of bytes read from write queue
system.mem_ctrls.bytesWritten               144208832                       # Total number of bytes written to DRAM
system.mem_ctrls.bytesReadSys               341770944                       # Total read bytes from the system interface side
system.mem_ctrls.bytesWrittenSys            144210048                       # Total written bytes from the system interface side
system.mem_ctrls.servicedByWrQ                     84                       # Number of DRAM read bursts serviced by the write queue
system.mem_ctrls.mergedWrBursts                     2                       # Number of DRAM write bursts merged with an existing one
system.mem_ctrls.neitherReadNorWriteReqs            0                       # Number of requests that are neither read nor write
system.mem_ctrls.perBankRdBursts::0            333523                       # Per bank write bursts
system.mem_ctrls.perBankRdBursts::1            333884                       # Per bank write bursts
system.mem_ctrls.perBankRdBursts::2            334173                       # Per bank write bursts
system.mem_ctrls.perBankRdBursts::3            333811                       # Per bank write bursts
system.mem_ctrls.perBankRdBursts::4            334057                       # Per bank write bursts
system.mem_ctrls.perBankRdBursts::5            334349                       # Per bank write bursts
system.mem_ctrls.perBankRdBursts::6            332405                       # Per bank write bursts
system.mem_ctrls.perBankRdBursts::7            332996                       # Per bank write bursts
system.mem_ctrls.perBankRdBursts::8            333513                       # Per bank write bursts
system.mem_ctrls.perBankRdBursts::9            334975                       # Per bank write bursts
system.mem_ctrls.perBankRdBursts::10           333892                       # Per bank write bursts
system.mem_ctrls.perBankRdBursts::11           333976                       # Per bank write bursts
system.mem_ctrls.perBankRdBursts::12           333742                       # Per bank write bursts
system.mem_ctrls.perBankRdBursts::13           333596                       # Per bank write bursts
system.mem_ctrls.perBankRdBursts::14           333463                       # Per bank write bursts
system.mem_ctrls.perBankRdBursts::15           333732                       # Per bank write bursts
system.mem_ctrls.perBankWrBursts::0            141448                       # Per bank write bursts
system.mem_ctrls.perBankWrBursts::1            140736                       # Per bank write bursts
system.mem_ctrls.perBankWrBursts::2            140861                       # Per bank write bursts
system.mem_ctrls.perBankWrBursts::3            140320                       # Per bank write bursts
system.mem_ctrls.perBankWrBursts::4            140627                       # Per bank write bursts
system.mem_ctrls.perBankWrBursts::5            140120                       # Per bank write bursts
system.mem_ctrls.perBankWrBursts::6            139878                       # Per bank write bursts
system.mem_ctrls.perBankWrBursts::7            140609                       # Per bank write bursts
system.mem_ctrls.perBankWrBursts::8            140063                       # Per bank write bursts
system.mem_ctrls.perBankWrBursts::9            141755                       # Per bank write bursts
system.mem_ctrls.perBankWrBursts::10           140934                       # Per bank write bursts
system.mem_ctrls.perBankWrBursts::11           141201                       # Per bank write bursts
system.mem_ctrls.perBankWrBursts::12           140977                       # Per bank write bursts
system.mem_ctrls.perBankWrBursts::13           140903                       # Per bank write bursts
system.mem_ctrls.perBankWrBursts::14           141547                       # Per bank write bursts
system.mem_ctrls.perBankWrBursts::15           141284                       # Per bank write bursts
system.mem_ctrls.numRdRetry                         0                       # Number of times read queue was full causing retry
system.mem_ctrls.numWrRetry                         0                       # Number of times write queue was full causing retry
system.mem_ctrls.totGap                  2607499393000                       # Total gap between requests
system.mem_ctrls.readPktSize::0                     0                       # Read request sizes (log2)
system.mem_ctrls.readPktSize::1                     0                       # Read request sizes (log2)
system.mem_ctrls.readPktSize::2                     0                       # Read request sizes (log2)
system.mem_ctrls.readPktSize::3                     0                       # Read request sizes (log2)
system.mem_ctrls.readPktSize::4                     0                       # Read request sizes (log2)
system.mem_ctrls.readPktSize::5                     0                       # Read request sizes (log2)
system.mem_ctrls.readPktSize::6               5340171                       # Read request sizes (log2)
system.mem_ctrls.writePktSize::0                    0                       # Write request sizes (log2)
system.mem_ctrls.writePktSize::1                    0                       # Write request sizes (log2)
system.mem_ctrls.writePktSize::2                    0                       # Write request sizes (log2)
system.mem_ctrls.writePktSize::3                    0                       # Write request sizes (log2)
system.mem_ctrls.writePktSize::4                    0                       # Write request sizes (log2)
system.mem_ctrls.writePktSize::5                    0                       # Write request sizes (log2)
system.mem_ctrls.writePktSize::6              2253282                       # Write request sizes (log2)
system.mem_ctrls.rdQLenPdf::0                 5340050                       # What read queue length does an incoming req see
system.mem_ctrls.rdQLenPdf::1                      37                       # What read queue length does an incoming req see
system.mem_ctrls.rdQLenPdf::2                       0                       # What read queue length does an incoming req see
system.mem_ctrls.rdQLenPdf::3                       0                       # What read queue length does an incoming req see
system.mem_ctrls.rdQLenPdf::4                       0                       # What read queue length does an incoming req see
system.mem_ctrls.rdQLenPdf::5                       0                       # What read queue length does an incoming req see
system.mem_ctrls.rdQLenPdf::6                       0                       # What read queue length does an incoming req see
system.mem_ctrls.rdQLenPdf::7                       0                       # What read queue length does an incoming req see
system.mem_ctrls.rdQLenPdf::8                       0                       # What read queue length does an incoming req see
system.mem_ctrls.rdQLenPdf::9                       0                       # What read queue length does an incoming req see
system.mem_ctrls.rdQLenPdf::10                      0                       # What read queue length does an incoming req see
system.mem_ctrls.rdQLenPdf::11                      0                       # What read queue length does an incoming req see
system.mem_ctrls.rdQLenPdf::12                      0                       # What read queue length does an incoming req see
system.mem_ctrls.rdQLenPdf::13                      0                       # What read queue length does an incoming req see
system.mem_ctrls.rdQLenPdf::14                      0                       # What read queue length does an incoming req see
system.mem_ctrls.rdQLenPdf::15                      0                       # What read queue length does an incoming req see
system.mem_ctrls.rdQLenPdf::16                      0                       # What read queue length does an incoming req see
system.mem_ctrls.rdQLenPdf::17                      0                       # What read queue length does an incoming req see
system.mem_ctrls.rdQLenPdf::18                      0                       # What read queue length does an incoming req see
system.mem_ctrls.rdQLenPdf::19                      0                       # What read queue length does an incoming req see
system.mem_ctrls.rdQLenPdf::20                      0                       # What read queue length does an incoming req see
system.mem_ctrls.rdQLenPdf::21                      0                       # What read queue length does an incoming req see
system.mem_ctrls.rdQLenPdf::22                      0                       # What read queue length does an incoming req see
system.mem_ctrls.rdQLenPdf::23                      0                       # What read queue length does an incoming req see
system.mem_ctrls.rdQLenPdf::24                      0                       # What read queue length does an incoming req see
system.mem_ctrls.rdQLenPdf::25                      0                       # What read queue length does an incoming req see
system.mem_ctrls.rdQLenPdf::26                      0                       # What read queue length does an incoming req see
system.mem_ctrls.rdQLenPdf::27                      0                       # What read queue length does an incoming req see
system.mem_ctrls.rdQLenPdf::28                      0                       # What read queue length does an incoming req see
system.mem_ctrls.rdQLenPdf::29                      0                       # What read queue length does an incoming req see
system.mem_ctrls.rdQLenPdf::30                      0                       # What read queue length does an incoming req see
system.mem_ctrls.rdQLenPdf::31                      0                       # What read queue length does an incoming req see
system.mem_ctrls.wrQLenPdf::0                       1                       # What write queue length does an incoming req see
system.mem_ctrls.wrQLenPdf::1                       1                       # What write queue length does an incoming req see
system.mem_ctrls.wrQLenPdf::2                       1                       # What write queue length does an incoming req see
system.mem_ctrls.wrQLenPdf::3                       1                       # What write queue length does an incoming req see
system.mem_ctrls.wrQLenPdf::4                       1                       # What write queue length does an incoming req see
system.mem_ctrls.wrQLenPdf::5                       1                       # What write queue length does an incoming req see
system.mem_ctrls.wrQLenPdf::6                       1                       # What write queue length does an incoming req see
system.mem_ctrls.wrQLenPdf::7                       1                       # What write queue length does an incoming req see
system.mem_ctrls.wrQLenPdf::8                       1                       # What write queue length does an incoming req see
system.mem_ctrls.wrQLenPdf::9                       1                       # What write queue length does an incoming req see
system.mem_ctrls.wrQLenPdf::10                      1                       # What write queue length does an incoming req see
system.mem_ctrls.wrQLenPdf::11                      1                       # What write queue length does an incoming req see
system.mem_ctrls.wrQLenPdf::12                      1                       # What write queue length does an incoming req see
system.mem_ctrls.wrQLenPdf::13                      1                       # What write queue length does an incoming req see
system.mem_ctrls.wrQLenPdf::14                      1                       # What write queue length does an incoming req see
system.mem_ctrls.wrQLenPdf::15                   2405                       # What write queue length does an incoming req see
system.mem_ctrls.wrQLenPdf::16                   3370                       # What write queue length does an incoming req see
system.mem_ctrls.wrQLenPdf::17                 123280                       # What write queue length does an incoming req see
system.mem_ctrls.wrQLenPdf::18                 139810                       # What write queue length does an incoming req see
system.mem_ctrls.wrQLenPdf::19                 140575                       # What write queue length does an incoming req see
system.mem_ctrls.wrQLenPdf::20                 140698                       # What write queue length does an incoming req see
system.mem_ctrls.wrQLenPdf::21                 140792                       # What write queue length does an incoming req see
system.mem_ctrls.wrQLenPdf::22                 140858                       # What write queue length does an incoming req see
system.mem_ctrls.wrQLenPdf::23                 140850                       # What write queue length does an incoming req see
system.mem_ctrls.wrQLenPdf::24                 140912                       # What write queue length does an incoming req see
system.mem_ctrls.wrQLenPdf::25                 140783                       # What write queue length does an incoming req see
system.mem_ctrls.wrQLenPdf::26                 141087                       # What write queue length does an incoming req see
system.mem_ctrls.wrQLenPdf::27                 142049                       # What write queue length does an incoming req see
system.mem_ctrls.wrQLenPdf::28                 142497                       # What write queue length does an incoming req see
system.mem_ctrls.wrQLenPdf::29                 144161                       # What write queue length does an incoming req see
system.mem_ctrls.wrQLenPdf::30                 143255                       # What write queue length does an incoming req see
system.mem_ctrls.wrQLenPdf::31                 141940                       # What write queue length does an incoming req see
system.mem_ctrls.wrQLenPdf::32                 143641                       # What write queue length does an incoming req see
system.mem_ctrls.wrQLenPdf::33                    294                       # What write queue length does an incoming req see
system.mem_ctrls.wrQLenPdf::34                      7                       # What write queue length does an incoming req see
system.mem_ctrls.wrQLenPdf::35                      1                       # What write queue length does an incoming req see
system.mem_ctrls.wrQLenPdf::36                      0                       # What write queue length does an incoming req see
system.mem_ctrls.wrQLenPdf::37                      0                       # What write queue length does an incoming req see
system.mem_ctrls.wrQLenPdf::38                      0                       # What write queue length does an incoming req see
system.mem_ctrls.wrQLenPdf::39                      0                       # What write queue length does an incoming req see
system.mem_ctrls.wrQLenPdf::40                      0                       # What write queue length does an incoming req see
system.mem_ctrls.wrQLenPdf::41                      0                       # What write queue length does an incoming req see
system.mem_ctrls.wrQLenPdf::42                      0                       # What write queue length does an incoming req see
system.mem_ctrls.wrQLenPdf::43                      0                       # What write queue length does an incoming req see
system.mem_ctrls.wrQLenPdf::44                      0                       # What write queue length does an incoming req see
system.mem_ctrls.wrQLenPdf::45                      0                       # What write queue length does an incoming req see
system.mem_ctrls.wrQLenPdf::46                      0                       # What write queue length does an incoming req see
system.mem_ctrls.wrQLenPdf::47                      0                       # What write queue length does an incoming req see
system.mem_ctrls.wrQLenPdf::48                      0                       # What write queue length does an incoming req see
system.mem_ctrls.wrQLenPdf::49                      0                       # What write queue length does an incoming req see
system.mem_ctrls.wrQLenPdf::50                      0                       # What write queue length does an incoming req see
system.mem_ctrls.wrQLenPdf::51                      0                       # What write queue length does an incoming req see
system.mem_ctrls.wrQLenPdf::52                      0                       # What write queue length does an incoming req see
system.mem_ctrls.wrQLenPdf::53                      0                       # What write queue length does an incoming req see
system.mem_ctrls.wrQLenPdf::54                      0                       # What write queue length does an incoming req see
system.mem_ctrls.wrQLenPdf::55                      0                       # What write queue length does an incoming req see
system.mem_ctrls.wrQLenPdf::56                      0                       # What write queue length does an incoming req see
system.mem_ctrls.wrQLenPdf::57                      0                       # What write queue length does an incoming req see
system.mem_ctrls.wrQLenPdf::58                      0                       # What write queue length does an incoming req see
system.mem_ctrls.wrQLenPdf::59                      0                       # What write queue length does an incoming req see
system.mem_ctrls.wrQLenPdf::60                      0                       # What write queue length does an incoming req see
system.mem_ctrls.wrQLenPdf::61                      0                       # What write queue length does an incoming req see
system.mem_ctrls.wrQLenPdf::62                      0                       # What write queue length does an incoming req see
system.mem_ctrls.wrQLenPdf::63                      0                       # What write queue length does an incoming req see
system.mem_ctrls.bytesPerActivate::samples      1668976                       # Bytes accessed per row activation
system.mem_ctrls.bytesPerActivate::mean    291.180911                       # Bytes accessed per row activation
system.mem_ctrls.bytesPerActivate::gmean   175.040129                       # Bytes accessed per row activation
system.mem_ctrls.bytesPerActivate::stdev   315.539922                       # Bytes accessed per row activation
system.mem_ctrls.bytesPerActivate::0-127       616504     36.94%     36.94% # Bytes accessed per row activation
system.mem_ctrls.bytesPerActivate::128-255       411708     24.67%     61.61% # Bytes accessed per row activation
system.mem_ctrls.bytesPerActivate::256-383       238555     14.29%     75.90% # Bytes accessed per row activation
system.mem_ctrls.bytesPerActivate::384-511        68079      4.08%     79.98% # Bytes accessed per row activation
system.mem_ctrls.bytesPerActivate::512-639        49559      2.97%     82.95% # Bytes accessed per row activation
system.mem_ctrls.bytesPerActivate::640-767        49432      2.96%     85.91% # Bytes accessed per row activation
system.mem_ctrls.bytesPerActivate::768-895        30964      1.86%     87.77% # Bytes accessed per row activation
system.mem_ctrls.bytesPerActivate::896-1023        25273      1.51%     89.28% # Bytes accessed per row activation
system.mem_ctrls.bytesPerActivate::1024-1151       178902     10.72%    100.00% # Bytes accessed per row activation
system.mem_ctrls.bytesPerActivate::total      1668976                       # Bytes accessed per row activation
system.mem_ctrls.rdPerTurnAround::samples       140440                       # Reads before turning the bus around for writes
system.mem_ctrls.rdPerTurnAround::mean      38.023968                       # Reads before turning the bus around for writes
system.mem_ctrls.rdPerTurnAround::gmean     19.155571                       # Reads before turning the bus around for writes
system.mem_ctrls.rdPerTurnAround::stdev   1545.203453                       # Reads before turning the bus around for writes
system.mem_ctrls.rdPerTurnAround::0-16383       140403     99.97%     99.97% # Reads before turning the bus around for writes
system.mem_ctrls.rdPerTurnAround::16384-32767           17      0.01%     99.99% # Reads before turning the bus around for writes
system.mem_ctrls.rdPerTurnAround::32768-49151           14      0.01%    100.00% # Reads before turning the bus around for writes
system.mem_ctrls.rdPerTurnAround::49152-65535            1      0.00%    100.00% # Reads before turning the bus around for writes
system.mem_ctrls.rdPerTurnAround::147456-163839            1      0.00%    100.00% # Reads before turning the bus around for writes
system.mem_ctrls.rdPerTurnAround::245760-262143            3      0.00%    100.00% # Reads before turning the bus around for writes
system.mem_ctrls.rdPerTurnAround::294912-311295            1      0.00%    100.00% # Reads before turning the bus around for writes
system.mem_ctrls.rdPerTurnAround::total        140440                       # Reads before turning the bus around for writes
system.mem_ctrls.wrPerTurnAround::samples       140440                       # Writes before turning the bus around for reads
system.mem_ctrls.wrPerTurnAround::mean      16.044311                       # Writes before turning the bus around for reads
system.mem_ctrls.wrPerTurnAround::gmean     16.041692                       # Writes before turning the bus around for reads
system.mem_ctrls.wrPerTurnAround::stdev      0.302126                       # Writes before turning the bus around for reads
system.mem_ctrls.wrPerTurnAround::16           137367     97.81%     97.81% # Writes before turning the bus around for reads
system.mem_ctrls.wrPerTurnAround::17              172      0.12%     97.93% # Writes before turning the bus around for reads
system.mem_ctrls.wrPerTurnAround::18             2685      1.91%     99.85% # Writes before turning the bus around for reads
system.mem_ctrls.wrPerTurnAround::19              187      0.13%     99.98% # Writes before turning the bus around for reads
system.mem_ctrls.wrPerTurnAround::20               25      0.02%    100.00% # Writes before turning the bus around for reads
system.mem_ctrls.wrPerTurnAround::21                4      0.00%    100.00% # Writes before turning the bus around for reads
system.mem_ctrls.wrPerTurnAround::total        140440                       # Writes before turning the bus around for reads
system.mem_ctrls.totQLat                  66422592248                       # Total ticks spent queuing
system.mem_ctrls.totMemAccLat            166549223498                       # Total ticks spent from burst creation until serviced by the DRAM
system.mem_ctrls.totBusLat                26700435000                       # Total ticks spent in databus transfers
system.mem_ctrls.avgQLat                     12438.49                       # Average queueing delay per DRAM burst
system.mem_ctrls.avgBusLat                    5000.00                       # Average bus latency per DRAM burst
system.mem_ctrls.avgMemAccLat                31188.49                       # Average memory access latency per DRAM burst
system.mem_ctrls.avgRdBW                       131.07                       # Average DRAM read bandwidth in MiByte/s
system.mem_ctrls.avgWrBW                        55.31                       # Average achieved write bandwidth in MiByte/s
system.mem_ctrls.avgRdBWSys                    131.07                       # Average system read bandwidth in MiByte/s
system.mem_ctrls.avgWrBWSys                     55.31                       # Average system write bandwidth in MiByte/s
system.mem_ctrls.peakBW                      12800.00                       # Theoretical peak bandwidth in MiByte/s
system.mem_ctrls.busUtil                         1.46                       # Data bus utilization in percentage
system.mem_ctrls.busUtilRead                     1.02                       # Data bus utilization in percentage for reads
system.mem_ctrls.busUtilWrite                    0.43                       # Data bus utilization in percentage for writes
system.mem_ctrls.avgRdQLen                       1.00                       # Average read queue length when enqueuing
system.mem_ctrls.avgWrQLen                      22.61                       # Average write queue length when enqueuing
system.mem_ctrls.readRowHits                  4686103                       # Number of row buffer hits during reads
system.mem_ctrls.writeRowHits                 1238267                       # Number of row buffer hits during writes
system.mem_ctrls.readRowHitRate                 87.75                       # Row buffer hit rate for reads
system.mem_ctrls.writeRowHitRate                54.95                       # Row buffer hit rate for writes
system.mem_ctrls.avgGap                     343387.84                       # Average gap between requests
system.mem_ctrls.pageHitRate                    78.02                       # Row buffer hit rate, read and write combined
system.mem_ctrls_0.actEnergy               6311133360                       # Energy for activate commands per rank (pJ)
system.mem_ctrls_0.preEnergy               3443574750                       # Energy for precharge commands per rank (pJ)
system.mem_ctrls_0.readEnergy             20819736600                       # Energy for read commands per rank (pJ)
system.mem_ctrls_0.writeEnergy             7287362640                       # Energy for write commands per rank (pJ)
system.mem_ctrls_0.refreshEnergy         170309115600                       # Energy for refresh commands per rank (pJ)
system.mem_ctrls_0.actBackEnergy         780245319375                       # Energy for active background per rank (pJ)
system.mem_ctrls_0.preBackEnergy         880073436000                       # Energy for precharge background per rank (pJ)
system.mem_ctrls_0.totalEnergy           1868489678325                       # Total energy per rank (pJ)
system.mem_ctrls_0.averagePower            716.583198                       # Core power per rank (mW)
system.mem_ctrls_0.memoryStateTime::IDLE 1455584143000                       # Time in different power states
system.mem_ctrls_0.memoryStateTime::REF   87070100000                       # Time in different power states
system.mem_ctrls_0.memoryStateTime::PRE_PDN            0                       # Time in different power states
system.mem_ctrls_0.memoryStateTime::ACT  1064844971000                       # Time in different power states
system.mem_ctrls_0.memoryStateTime::ACT_PDN            0                       # Time in different power states
system.mem_ctrls_1.actEnergy               6306226920                       # Energy for activate commands per rank (pJ)
system.mem_ctrls_1.preEnergy               3440897625                       # Energy for precharge commands per rank (pJ)
system.mem_ctrls_1.readEnergy             20832864000                       # Energy for read commands per rank (pJ)
system.mem_ctrls_1.writeEnergy             7313677920                       # Energy for write commands per rank (pJ)
system.mem_ctrls_1.refreshEnergy         170309115600                       # Energy for refresh commands per rank (pJ)
system.mem_ctrls_1.actBackEnergy         779308197480                       # Energy for active background per rank (pJ)
system.mem_ctrls_1.preBackEnergy         880895472750                       # Energy for precharge background per rank (pJ)
system.mem_ctrls_1.totalEnergy           1868406452295                       # Total energy per rank (pJ)
system.mem_ctrls_1.averagePower            716.551280                       # Core power per rank (mW)
system.mem_ctrls_1.memoryStateTime::IDLE 1456988151250                       # Time in different power states
system.mem_ctrls_1.memoryStateTime::REF   87070100000                       # Time in different power states
system.mem_ctrls_1.memoryStateTime::PRE_PDN            0                       # Time in different power states
system.mem_ctrls_1.memoryStateTime::ACT  1063440353750                       # Time in different power states
system.mem_ctrls_1.memoryStateTime::ACT_PDN            0                       # Time in different power states
system.cpu_voltage_domain.voltage                   1                       # Voltage in Volts
system.cpu_clk_domain.clock                       500                       # Clock period in ticks
system.cpu0.apic_clk_domain.clock                8000                       # Clock period in ticks
system.cpu0.workload.num_syscalls                 172                       # Number of system calls
system.cpu0.numCycles                      5214999211                       # number of cpu cycles simulated
system.cpu0.numWorkItemsStarted                     0                       # number of work items this cpu started
system.cpu0.numWorkItemsCompleted                   0                       # number of work items this cpu completed
system.cpu0.committedInsts                 1428758696                       # Number of instructions committed
system.cpu0.committedOps                   3152681588                       # Number of ops (including micro ops) committed
system.cpu0.num_int_alu_accesses           3024614691                       # Number of integer alu accesses
system.cpu0.num_fp_alu_accesses              54163724                       # Number of float alu accesses
system.cpu0.num_func_calls                   76064094                       # number of times a function call or return occured
system.cpu0.num_conditional_control_insts    302243228                       # number of instructions that are conditional controls
system.cpu0.num_int_insts                  3024614691                       # number of integer instructions
system.cpu0.num_fp_insts                     54163724                       # number of float instructions
system.cpu0.num_int_register_reads         6531858376                       # number of times the integer registers were read
system.cpu0.num_int_register_writes        2761355330                       # number of times the integer registers were written
system.cpu0.num_fp_register_reads            87042059                       # number of times the floating registers were read
system.cpu0.num_fp_register_writes           42571560                       # number of times the floating registers were written
system.cpu0.num_cc_register_reads          2570721366                       # number of times the CC registers were read
system.cpu0.num_cc_register_writes          931815133                       # number of times the CC registers were written
system.cpu0.num_mem_refs                    727240392                       # number of memory refs
system.cpu0.num_load_insts                  464431262                       # Number of load instructions
system.cpu0.num_store_insts                 262809130                       # Number of store instructions
system.cpu0.num_idle_cycles                  0.002000                       # Number of idle cycles
system.cpu0.num_busy_cycles              5214999210.998000                       # Number of busy cycles
system.cpu0.not_idle_fraction                1.000000                       # Percentage of non-idle cycles
system.cpu0.idle_fraction                    0.000000                       # Percentage of idle cycles
system.cpu0.Branches                        414801377                       # Number of branches fetched
system.cpu0.op_class::No_OpClass             44484278      1.41%      1.41% # Class of executed instruction
system.cpu0.op_class::IntAlu               2148424918     68.15%     69.56% # Class of executed instruction
system.cpu0.op_class::IntMult                     698      0.00%     69.56% # Class of executed instruction
system.cpu0.op_class::IntDiv                189960798      6.03%     75.58% # Class of executed instruction
system.cpu0.op_class::FloatAdd               42570504      1.35%     76.93% # Class of executed instruction
system.cpu0.op_class::FloatCmp                      0      0.00%     76.93% # Class of executed instruction
system.cpu0.op_class::FloatCvt                      0      0.00%     76.93% # Class of executed instruction
system.cpu0.op_class::FloatMult                     0      0.00%     76.93% # Class of executed instruction
system.cpu0.op_class::FloatDiv                      0      0.00%     76.93% # Class of executed instruction
system.cpu0.op_class::FloatSqrt                     0      0.00%     76.93% # Class of executed instruction
system.cpu0.op_class::SimdAdd                       0      0.00%     76.93% # Class of executed instruction
system.cpu0.op_class::SimdAddAcc                    0      0.00%     76.93% # Class of executed instruction
system.cpu0.op_class::SimdAlu                       0      0.00%     76.93% # Class of executed instruction
system.cpu0.op_class::SimdCmp                       0      0.00%     76.93% # Class of executed instruction
system.cpu0.op_class::SimdCvt                       0      0.00%     76.93% # Class of executed instruction
system.cpu0.op_class::SimdMisc                      0      0.00%     76.93% # Class of executed instruction
system.cpu0.op_class::SimdMult                      0      0.00%     76.93% # Class of executed instruction
system.cpu0.op_class::SimdMultAcc                   0      0.00%     76.93% # Class of executed instruction
system.cpu0.op_class::SimdShift                     0      0.00%     76.93% # Class of executed instruction
system.cpu0.op_class::SimdShiftAcc                  0      0.00%     76.93% # Class of executed instruction
system.cpu0.op_class::SimdSqrt                      0      0.00%     76.93% # Class of executed instruction
system.cpu0.op_class::SimdFloatAdd                  0      0.00%     76.93% # Class of executed instruction
system.cpu0.op_class::SimdFloatAlu                  0      0.00%     76.93% # Class of executed instruction
system.cpu0.op_class::SimdFloatCmp                  0      0.00%     76.93% # Class of executed instruction
system.cpu0.op_class::SimdFloatCvt                  0      0.00%     76.93% # Class of executed instruction
system.cpu0.op_class::SimdFloatDiv                  0      0.00%     76.93% # Class of executed instruction
system.cpu0.op_class::SimdFloatMisc                 0      0.00%     76.93% # Class of executed instruction
system.cpu0.op_class::SimdFloatMult                 0      0.00%     76.93% # Class of executed instruction
system.cpu0.op_class::SimdFloatMultAcc              0      0.00%     76.93% # Class of executed instruction
system.cpu0.op_class::SimdFloatSqrt                 0      0.00%     76.93% # Class of executed instruction
system.cpu0.op_class::MemRead               464431262     14.73%     91.66% # Class of executed instruction
system.cpu0.op_class::MemWrite              262809130      8.34%    100.00% # Class of executed instruction
system.cpu0.op_class::IprAccess                     0      0.00%    100.00% # Class of executed instruction
system.cpu0.op_class::InstPrefetch                  0      0.00%    100.00% # Class of executed instruction
system.cpu0.op_class::total                3152681588                       # Class of executed instruction
system.cpu1.apic_clk_domain.clock                8000                       # Clock period in ticks
system.cpu1.numCycles                      5214719866                       # number of cpu cycles simulated
system.cpu1.numWorkItemsStarted                     0                       # number of work items this cpu started
system.cpu1.numWorkItemsCompleted                   0                       # number of work items this cpu completed
system.cpu1.committedInsts                  414476075                       # Number of instructions committed
system.cpu1.committedOps                    826225945                       # Number of ops (including micro ops) committed
system.cpu1.num_int_alu_accesses            639295762                       # Number of integer alu accesses
system.cpu1.num_fp_alu_accesses             437543750                       # Number of float alu accesses
system.cpu1.num_func_calls                     970937                       # number of times a function call or return occured
system.cpu1.num_conditional_control_insts     47026006                       # number of instructions that are conditional controls
system.cpu1.num_int_insts                   639295762                       # number of integer instructions
system.cpu1.num_fp_insts                    437543750                       # number of float instructions
system.cpu1.num_int_register_reads         1204632605                       # number of times the integer registers were read
system.cpu1.num_int_register_writes         341120169                       # number of times the integer registers were written
system.cpu1.num_fp_register_reads           622856196                       # number of times the floating registers were read
system.cpu1.num_fp_register_writes          371919154                       # number of times the floating registers were written
system.cpu1.num_cc_register_reads           282641585                       # number of times the CC registers were read
system.cpu1.num_cc_register_writes          282491040                       # number of times the CC registers were written
system.cpu1.num_mem_refs                    252930453                       # number of memory refs
system.cpu1.num_load_insts                  186820034                       # Number of load instructions
system.cpu1.num_store_insts                  66110419                       # Number of store instructions
system.cpu1.num_idle_cycles              2850970343.643597                       # Number of idle cycles
system.cpu1.num_busy_cycles              2363749522.356403                       # Number of busy cycles
system.cpu1.not_idle_fraction                0.453284                       # Percentage of non-idle cycles
system.cpu1.idle_fraction                    0.546716                       # Percentage of idle cycles
system.cpu1.Branches                         48507651                       # Number of branches fetched
system.cpu1.op_class::No_OpClass                    9      0.00%      0.00% # Class of executed instruction
system.cpu1.op_class::IntAlu                384933795     46.59%     46.59% # Class of executed instruction
system.cpu1.op_class::IntMult                 1431429      0.17%     46.76% # Class of executed instruction
system.cpu1.op_class::IntDiv                       63      0.00%     46.76% # Class of executed instruction
system.cpu1.op_class::FloatAdd              186930196     22.62%     69.39% # Class of executed instruction
system.cpu1.op_class::FloatCmp                      0      0.00%     69.39% # Class of executed instruction
system.cpu1.op_class::FloatCvt                      0      0.00%     69.39% # Class of executed instruction
system.cpu1.op_class::FloatMult                     0      0.00%     69.39% # Class of executed instruction
system.cpu1.op_class::FloatDiv                      0      0.00%     69.39% # Class of executed instruction
system.cpu1.op_class::FloatSqrt                     0      0.00%     69.39% # Class of executed instruction
system.cpu1.op_class::SimdAdd                       0      0.00%     69.39% # Class of executed instruction
system.cpu1.op_class::SimdAddAcc                    0      0.00%     69.39% # Class of executed instruction
system.cpu1.op_class::SimdAlu                       0      0.00%     69.39% # Class of executed instruction
system.cpu1.op_class::SimdCmp                       0      0.00%     69.39% # Class of executed instruction
system.cpu1.op_class::SimdCvt                       0      0.00%     69.39% # Class of executed instruction
system.cpu1.op_class::SimdMisc                      0      0.00%     69.39% # Class of executed instruction
system.cpu1.op_class::SimdMult                      0      0.00%     69.39% # Class of executed instruction
system.cpu1.op_class::SimdMultAcc                   0      0.00%     69.39% # Class of executed instruction
system.cpu1.op_class::SimdShift                     0      0.00%     69.39% # Class of executed instruction
system.cpu1.op_class::SimdShiftAcc                  0      0.00%     69.39% # Class of executed instruction
system.cpu1.op_class::SimdSqrt                      0      0.00%     69.39% # Class of executed instruction
system.cpu1.op_class::SimdFloatAdd                  0      0.00%     69.39% # Class of executed instruction
system.cpu1.op_class::SimdFloatAlu                  0      0.00%     69.39% # Class of executed instruction
system.cpu1.op_class::SimdFloatCmp                  0      0.00%     69.39% # Class of executed instruction
system.cpu1.op_class::SimdFloatCvt                  0      0.00%     69.39% # Class of executed instruction
system.cpu1.op_class::SimdFloatDiv                  0      0.00%     69.39% # Class of executed instruction
system.cpu1.op_class::SimdFloatMisc                 0      0.00%     69.39% # Class of executed instruction
system.cpu1.op_class::SimdFloatMult                 0      0.00%     69.39% # Class of executed instruction
system.cpu1.op_class::SimdFloatMultAcc              0      0.00%     69.39% # Class of executed instruction
system.cpu1.op_class::SimdFloatSqrt                 0      0.00%     69.39% # Class of executed instruction
system.cpu1.op_class::MemRead               186820034     22.61%     92.00% # Class of executed instruction
system.cpu1.op_class::MemWrite               66110419      8.00%    100.00% # Class of executed instruction
system.cpu1.op_class::IprAccess                     0      0.00%    100.00% # Class of executed instruction
system.cpu1.op_class::InstPrefetch                  0      0.00%    100.00% # Class of executed instruction
system.cpu1.op_class::total                 826225945                       # Class of executed instruction
system.ruby.clk_domain.clock                      500                       # Clock period in ticks
system.ruby.delayHist::bucket_size                  8                       # delay histogram for all message
system.ruby.delayHist::max_bucket                  79                       # delay histogram for all message
system.ruby.delayHist::samples               92195127                       # delay histogram for all message
system.ruby.delayHist::mean                  0.523291                       # delay histogram for all message
system.ruby.delayHist::stdev                 2.026464                       # delay histogram for all message
system.ruby.delayHist                    |    86296041     93.60%     93.60% |     5798642      6.29%     99.89% |      100425      0.11%    100.00% |           3      0.00%    100.00% |          11      0.00%    100.00% |           5      0.00%    100.00% |           0      0.00%    100.00% |           0      0.00%    100.00% |           0      0.00%    100.00% |           0      0.00%    100.00% # delay histogram for all message
system.ruby.delayHist::total                 92195127                       # delay histogram for all message
system.ruby.outstanding_req_hist::bucket_size            1                      
system.ruby.outstanding_req_hist::max_bucket            9                      
system.ruby.outstanding_req_hist::samples   3321221909                      
system.ruby.outstanding_req_hist::mean       1.000710                      
system.ruby.outstanding_req_hist::gmean      1.000493                      
system.ruby.outstanding_req_hist::stdev      0.026644                      
system.ruby.outstanding_req_hist         |           0      0.00%      0.00% |  3318862557     99.93%     99.93% |     2359352      0.07%    100.00% |           0      0.00%    100.00% |           0      0.00%    100.00% |           0      0.00%    100.00% |           0      0.00%    100.00% |           0      0.00%    100.00% |           0      0.00%    100.00% |           0      0.00%    100.00%
system.ruby.outstanding_req_hist::total    3321221909                      
system.ruby.latency_hist::bucket_size             256                      
system.ruby.latency_hist::max_bucket             2559                      
system.ruby.latency_hist::samples          3321221909                      
system.ruby.latency_hist::mean               1.282931                      
system.ruby.latency_hist::gmean              1.015856                      
system.ruby.latency_hist::stdev              7.313044                      
system.ruby.latency_hist                 |  3320979398     99.99%     99.99% |       65657      0.00%     99.99% |      139602      0.00%    100.00% |       30251      0.00%    100.00% |        4787      0.00%    100.00% |        1831      0.00%    100.00% |         342      0.00%    100.00% |          39      0.00%    100.00% |           2      0.00%    100.00% |           0      0.00%    100.00%
system.ruby.latency_hist::total            3321221909                      
system.ruby.hit_latency_hist::bucket_size          256                      
system.ruby.hit_latency_hist::max_bucket         2559                      
system.ruby.hit_latency_hist::samples      3321221909                      
system.ruby.hit_latency_hist::mean           1.282931                      
system.ruby.hit_latency_hist::gmean          1.015856                      
system.ruby.hit_latency_hist::stdev          7.313044                      
system.ruby.hit_latency_hist             |  3320979398     99.99%     99.99% |       65657      0.00%     99.99% |      139602      0.00%    100.00% |       30251      0.00%    100.00% |        4787      0.00%    100.00% |        1831      0.00%    100.00% |         342      0.00%    100.00% |          39      0.00%    100.00% |           2      0.00%    100.00% |           0      0.00%    100.00%
system.ruby.hit_latency_hist::total        3321221909                      
system.ruby.l0_cntrl0.Dcache.demand_hits    726148390                       # Number of cache demand hits
system.ruby.l0_cntrl0.Dcache.demand_misses      1092058                       # Number of cache demand misses
system.ruby.l0_cntrl0.Dcache.demand_accesses    727240448                       # Number of cache demand accesses
system.ruby.l0_cntrl0.Icache.demand_hits   1796195584                       # Number of cache demand hits
system.ruby.l0_cntrl0.Icache.demand_misses         4791                       # Number of cache demand misses
system.ruby.l0_cntrl0.Icache.demand_accesses   1796200375                       # Number of cache demand accesses
system.ruby.l0_cntrl0.Zcache.demand_hits     67031445                       # Number of cache demand hits
system.ruby.l0_cntrl0.Zcache.demand_misses      1085904                       # Number of cache demand misses
system.ruby.l0_cntrl0.Zcache.demand_accesses     68117349                       # Number of cache demand accesses
system.ruby.l0_cntrl1.Dcache.demand_hits    242412831                       # Number of cache demand hits
system.ruby.l0_cntrl1.Dcache.demand_misses     12876918                       # Number of cache demand misses
system.ruby.l0_cntrl1.Dcache.demand_accesses    255289749                       # Number of cache demand accesses
system.ruby.l0_cntrl1.Icache.demand_hits    542480027                       # Number of cache demand hits
system.ruby.l0_cntrl1.Icache.demand_misses        11310                       # Number of cache demand misses
system.ruby.l0_cntrl1.Icache.demand_accesses    542491337                       # Number of cache demand accesses
system.ruby.l0_cntrl1.Zcache.demand_hits     86999421                       # Number of cache demand hits
system.ruby.l0_cntrl1.Zcache.demand_misses      3559171                       # Number of cache demand misses
system.ruby.l0_cntrl1.Zcache.demand_accesses     90558592                       # Number of cache demand accesses
system.ruby.l1_cntrl0.cache.demand_hits          4843                       # Number of cache demand hits
system.ruby.l1_cntrl0.cache.demand_misses      1092006                       # Number of cache demand misses
system.ruby.l1_cntrl0.cache.demand_accesses      1096849                       # Number of cache demand accesses
system.ruby.l1_cntrl0.zcache.demand_hits           37                       # Number of cache demand hits
system.ruby.l1_cntrl0.zcache.demand_misses       264803                       # Number of cache demand misses
system.ruby.l1_cntrl0.zcache.demand_accesses       264840                       # Number of cache demand accesses
system.ruby.l1_cntrl1.cache.demand_hits        406797                       # Number of cache demand hits
system.ruby.l1_cntrl1.cache.demand_misses     12481431                       # Number of cache demand misses
system.ruby.l1_cntrl1.cache.demand_accesses     12888228                       # Number of cache demand accesses
system.ruby.l1_cntrl1.zcache.demand_hits       212101                       # Number of cache demand hits
system.ruby.l1_cntrl1.zcache.demand_misses      2785791                       # Number of cache demand misses
system.ruby.l1_cntrl1.zcache.demand_accesses      2997892                       # Number of cache demand accesses
system.ruby.l2_cntrl0.L2cache.demand_hits      8233179                       # Number of cache demand hits
system.ruby.l2_cntrl0.L2cache.demand_misses      5340258                       # Number of cache demand misses
system.ruby.l2_cntrl0.L2cache.demand_accesses     13573437                       # Number of cache demand accesses
system.ruby.l2_cntrl0.ZL2cache.demand_hits      3087740                       # Number of cache demand hits
system.ruby.l2_cntrl0.ZL2cache.demand_misses       479311                       # Number of cache demand misses
system.ruby.l2_cntrl0.ZL2cache.demand_accesses      3567051                       # Number of cache demand accesses
system.ruby.l2_cntrl0.fully_busy_cycles         89041                       # cycles for which number of transistions == max transitions
system.ruby.memctrl_clk_domain.clock             1500                       # Clock period in ticks
system.ruby.network.routers0.percent_links_utilized            0                      
system.ruby.network.routers1.percent_links_utilized            0                      
system.ruby.network.routers2.percent_links_utilized     0.109848                      
system.ruby.network.routers2.msg_count.Control::0      1092006                      
system.ruby.network.routers2.msg_count.Request_Control::2        12177                      
system.ruby.network.routers2.msg_count.Response_Data::1      1092060                      
system.ruby.network.routers2.msg_count.Response_Control::1      1080097                      
system.ruby.network.routers2.msg_count.Response_Control::2      1092006                      
system.ruby.network.routers2.msg_count.Writeback_Data::0      1078701                      
system.ruby.network.routers2.msg_count.Writeback_Data::1        11200                      
system.ruby.network.routers2.msg_count.Writeback_Control::0          423                      
system.ruby.network.routers2.msg_bytes.Control::0      8736048                      
system.ruby.network.routers2.msg_bytes.Request_Control::2        97416                      
system.ruby.network.routers2.msg_bytes.Response_Data::1     78628320                      
system.ruby.network.routers2.msg_bytes.Response_Control::1      8640776                      
system.ruby.network.routers2.msg_bytes.Response_Control::2      8736048                      
system.ruby.network.routers2.msg_bytes.Writeback_Data::0     77666472                      
system.ruby.network.routers2.msg_bytes.Writeback_Data::1       806400                      
system.ruby.network.routers2.msg_bytes.Writeback_Control::0         3384                      
system.ruby.network.routers3.percent_links_utilized     0.952304                      
system.ruby.network.routers3.msg_count.Control::0     12481431                      
system.ruby.network.routers3.msg_count.Request_Control::2        13235                      
system.ruby.network.routers3.msg_count.Response_Data::1     12481519                      
system.ruby.network.routers3.msg_count.Response_Control::1     12462759                      
system.ruby.network.routers3.msg_count.Response_Control::2     12480672                      
system.ruby.network.routers3.msg_count.Writeback_Data::0      4537246                      
system.ruby.network.routers3.msg_count.Writeback_Data::1        13121                      
system.ruby.network.routers3.msg_count.Writeback_Control::0      7925436                      
system.ruby.network.routers3.msg_bytes.Control::0     99851448                      
system.ruby.network.routers3.msg_bytes.Request_Control::2       105880                      
system.ruby.network.routers3.msg_bytes.Response_Data::1    898669368                      
system.ruby.network.routers3.msg_bytes.Response_Control::1     99702072                      
system.ruby.network.routers3.msg_bytes.Response_Control::2     99845376                      
system.ruby.network.routers3.msg_bytes.Writeback_Data::0    326681712                      
system.ruby.network.routers3.msg_bytes.Writeback_Data::1       944712                      
system.ruby.network.routers3.msg_bytes.Writeback_Control::0     63403488                      
system.ruby.network.routers4.percent_links_utilized     1.450956                      
system.ruby.network.routers4.msg_count.Control::0     18913608                      
system.ruby.network.routers4.msg_count.Request_Control::2        25363                      
system.ruby.network.routers4.msg_count.Response_Data::1     21166858                      
system.ruby.network.routers4.msg_count.Response_Control::1     20967814                      
system.ruby.network.routers4.msg_count.Response_Control::2     13572678                      
system.ruby.network.routers4.msg_count.Writeback_Data::0      5615947                      
system.ruby.network.routers4.msg_count.Writeback_Data::1        24321                      
system.ruby.network.routers4.msg_count.Writeback_Control::0      7925859                      
system.ruby.network.routers4.msg_bytes.Control::0    151308864                      
system.ruby.network.routers4.msg_bytes.Request_Control::2       202904                      
system.ruby.network.routers4.msg_bytes.Response_Data::1   1524013776                      
system.ruby.network.routers4.msg_bytes.Response_Control::1    167742512                      
system.ruby.network.routers4.msg_bytes.Response_Control::2    108581424                      
system.ruby.network.routers4.msg_bytes.Writeback_Data::0    404348184                      
system.ruby.network.routers4.msg_bytes.Writeback_Data::1      1751112                      
system.ruby.network.routers4.msg_bytes.Writeback_Control::0     63406872                      
system.ruby.network.routers5.percent_links_utilized     0.388812                      
system.ruby.network.routers5.msg_count.Control::0      5340171                      
system.ruby.network.routers5.msg_count.Response_Data::1      7593453                      
system.ruby.network.routers5.msg_count.Response_Control::1      7425004                      
system.ruby.network.routers5.msg_bytes.Control::0     42721368                      
system.ruby.network.routers5.msg_bytes.Response_Data::1    546728616                      
system.ruby.network.routers5.msg_bytes.Response_Control::1     59400032                      
system.ruby.network.routers6.percent_links_utilized     0.483653                      
system.ruby.network.routers6.msg_count.Control::0     18913608                      
system.ruby.network.routers6.msg_count.Request_Control::2        25412                      
system.ruby.network.routers6.msg_count.Response_Data::1     21166945                      
system.ruby.network.routers6.msg_count.Response_Control::1     20967837                      
system.ruby.network.routers6.msg_count.Response_Control::2     13572678                      
system.ruby.network.routers6.msg_count.Writeback_Data::0      5615947                      
system.ruby.network.routers6.msg_count.Writeback_Data::1        24321                      
system.ruby.network.routers6.msg_count.Writeback_Control::0      7925859                      
system.ruby.network.routers6.msg_bytes.Control::0    151308864                      
system.ruby.network.routers6.msg_bytes.Request_Control::2       203296                      
system.ruby.network.routers6.msg_bytes.Response_Data::1   1524020040                      
system.ruby.network.routers6.msg_bytes.Response_Control::1    167742696                      
system.ruby.network.routers6.msg_bytes.Response_Control::2    108581424                      
system.ruby.network.routers6.msg_bytes.Writeback_Data::0    404348184                      
system.ruby.network.routers6.msg_bytes.Writeback_Data::1      1751112                      
system.ruby.network.routers6.msg_bytes.Writeback_Control::0     63406872                      
system.ruby.network.msg_count.Control        56740824                      
system.ruby.network.msg_count.Request_Control        76187                      
system.ruby.network.msg_count.Response_Data     63500835                      
system.ruby.network.msg_count.Response_Control    103621545                      
system.ruby.network.msg_count.Writeback_Data     16920804                      
system.ruby.network.msg_count.Writeback_Control     23777577                      
system.ruby.network.msg_byte.Control        453926592                      
system.ruby.network.msg_byte.Request_Control       609496                      
system.ruby.network.msg_byte.Response_Data   4572060120                      
system.ruby.network.msg_byte.Response_Control    828972360                      
system.ruby.network.msg_byte.Writeback_Data   1218297888                      
system.ruby.network.msg_byte.Writeback_Control    190220616                      
system.ruby.network.routers0.throttle0.link_utilization            0                      
system.ruby.network.routers0.throttle1.link_utilization            0                      
system.ruby.network.routers1.throttle0.link_utilization            0                      
system.ruby.network.routers1.throttle1.link_utilization            0                      
system.ruby.network.routers2.throttle0.link_utilization     0.104691                      
system.ruby.network.routers2.throttle0.msg_count.Request_Control::2        12177                      
system.ruby.network.routers2.throttle0.msg_count.Response_Data::1      1091988                      
system.ruby.network.routers2.throttle0.msg_count.Response_Control::1      1079160                      
system.ruby.network.routers2.throttle0.msg_bytes.Request_Control::2        97416                      
system.ruby.network.routers2.throttle0.msg_bytes.Response_Data::1     78623136                      
system.ruby.network.routers2.throttle0.msg_bytes.Response_Control::1      8633280                      
system.ruby.network.routers2.throttle1.link_utilization     0.115006                      
system.ruby.network.routers2.throttle1.msg_count.Control::0      1092006                      
system.ruby.network.routers2.throttle1.msg_count.Response_Data::1           72                      
system.ruby.network.routers2.throttle1.msg_count.Response_Control::1          937                      
system.ruby.network.routers2.throttle1.msg_count.Response_Control::2      1092006                      
system.ruby.network.routers2.throttle1.msg_count.Writeback_Data::0      1078701                      
system.ruby.network.routers2.throttle1.msg_count.Writeback_Data::1        11200                      
system.ruby.network.routers2.throttle1.msg_count.Writeback_Control::0          423                      
system.ruby.network.routers2.throttle1.msg_bytes.Control::0      8736048                      
system.ruby.network.routers2.throttle1.msg_bytes.Response_Data::1         5184                      
system.ruby.network.routers2.throttle1.msg_bytes.Response_Control::1         7496                      
system.ruby.network.routers2.throttle1.msg_bytes.Response_Control::2      8736048                      
system.ruby.network.routers2.throttle1.msg_bytes.Writeback_Data::0     77666472                      
system.ruby.network.routers2.throttle1.msg_bytes.Writeback_Data::1       806400                      
system.ruby.network.routers2.throttle1.msg_bytes.Writeback_Control::0         3384                      
system.ruby.network.routers3.throttle0.link_utilization     1.196633                      
system.ruby.network.routers3.throttle0.msg_count.Request_Control::2        13235                      
system.ruby.network.routers3.throttle0.msg_count.Response_Data::1     12481426                      
system.ruby.network.routers3.throttle0.msg_count.Response_Control::1     12462692                      
system.ruby.network.routers3.throttle0.msg_bytes.Request_Control::2       105880                      
system.ruby.network.routers3.throttle0.msg_bytes.Response_Data::1    898662672                      
system.ruby.network.routers3.throttle0.msg_bytes.Response_Control::1     99701536                      
system.ruby.network.routers3.throttle1.link_utilization     0.707975                      
system.ruby.network.routers3.throttle1.msg_count.Control::0     12481431                      
system.ruby.network.routers3.throttle1.msg_count.Response_Data::1           93                      
system.ruby.network.routers3.throttle1.msg_count.Response_Control::1           67                      
system.ruby.network.routers3.throttle1.msg_count.Response_Control::2     12480672                      
system.ruby.network.routers3.throttle1.msg_count.Writeback_Data::0      4537246                      
system.ruby.network.routers3.throttle1.msg_count.Writeback_Data::1        13121                      
system.ruby.network.routers3.throttle1.msg_count.Writeback_Control::0      7925436                      
system.ruby.network.routers3.throttle1.msg_bytes.Control::0     99851448                      
system.ruby.network.routers3.throttle1.msg_bytes.Response_Data::1         6696                      
system.ruby.network.routers3.throttle1.msg_bytes.Response_Control::1          536                      
system.ruby.network.routers3.throttle1.msg_bytes.Response_Control::2     99845376                      
system.ruby.network.routers3.throttle1.msg_bytes.Writeback_Data::0    326681712                      
system.ruby.network.routers3.throttle1.msg_bytes.Writeback_Data::1       944712                      
system.ruby.network.routers3.throttle1.msg_bytes.Writeback_Control::0     63403488                      
system.ruby.network.routers4.throttle0.link_utilization     1.330170                      
system.ruby.network.routers4.throttle0.msg_count.Control::0     13573437                      
system.ruby.network.routers4.throttle0.msg_count.Response_Data::1      5340249                      
system.ruby.network.routers4.throttle0.msg_count.Response_Control::1      4840124                      
system.ruby.network.routers4.throttle0.msg_count.Response_Control::2     13572678                      
system.ruby.network.routers4.throttle0.msg_count.Writeback_Data::0      5615947                      
system.ruby.network.routers4.throttle0.msg_count.Writeback_Data::1        24321                      
system.ruby.network.routers4.throttle0.msg_count.Writeback_Control::0      7925859                      
system.ruby.network.routers4.throttle0.msg_bytes.Control::0    108587496                      
system.ruby.network.routers4.throttle0.msg_bytes.Response_Data::1    384497928                      
system.ruby.network.routers4.throttle0.msg_bytes.Response_Control::1     38720992                      
system.ruby.network.routers4.throttle0.msg_bytes.Response_Control::2    108581424                      
system.ruby.network.routers4.throttle0.msg_bytes.Writeback_Data::0    404348184                      
system.ruby.network.routers4.throttle0.msg_bytes.Writeback_Data::1      1751112                      
system.ruby.network.routers4.throttle0.msg_bytes.Writeback_Control::0     63406872                      
system.ruby.network.routers4.throttle1.link_utilization     1.571742                      
system.ruby.network.routers4.throttle1.msg_count.Control::0      5340171                      
system.ruby.network.routers4.throttle1.msg_count.Request_Control::2        25363                      
system.ruby.network.routers4.throttle1.msg_count.Response_Data::1     15826609                      
system.ruby.network.routers4.throttle1.msg_count.Response_Control::1     16127690                      
system.ruby.network.routers4.throttle1.msg_bytes.Control::0     42721368                      
system.ruby.network.routers4.throttle1.msg_bytes.Request_Control::2       202904                      
system.ruby.network.routers4.throttle1.msg_bytes.Response_Data::1   1139515848                      
system.ruby.network.routers4.throttle1.msg_bytes.Response_Control::1    129021520                      
system.ruby.network.routers5.throttle0.link_utilization     0.270427                      
system.ruby.network.routers5.throttle0.msg_count.Control::0      5340171                      
system.ruby.network.routers5.throttle0.msg_count.Response_Data::1      2253282                      
system.ruby.network.routers5.throttle0.msg_count.Response_Control::1      2585861                      
system.ruby.network.routers5.throttle0.msg_bytes.Control::0     42721368                      
system.ruby.network.routers5.throttle0.msg_bytes.Response_Data::1    162236304                      
system.ruby.network.routers5.throttle0.msg_bytes.Response_Control::1     20686888                      
system.ruby.network.routers5.throttle1.link_utilization     0.507197                      
system.ruby.network.routers5.throttle1.msg_count.Response_Data::1      5340171                      
system.ruby.network.routers5.throttle1.msg_count.Response_Control::1      4839143                      
system.ruby.network.routers5.throttle1.msg_bytes.Response_Data::1    384492312                      
system.ruby.network.routers5.throttle1.msg_bytes.Response_Control::1     38713144                      
system.ruby.network.routers6.throttle0.link_utilization            0                      
system.ruby.network.routers6.throttle1.link_utilization            0                      
system.ruby.network.routers6.throttle2.link_utilization     0.104691                      
system.ruby.network.routers6.throttle2.msg_count.Request_Control::2        12177                      
system.ruby.network.routers6.throttle2.msg_count.Response_Data::1      1091988                      
system.ruby.network.routers6.throttle2.msg_count.Response_Control::1      1079160                      
system.ruby.network.routers6.throttle2.msg_bytes.Request_Control::2        97416                      
system.ruby.network.routers6.throttle2.msg_bytes.Response_Data::1     78623136                      
system.ruby.network.routers6.throttle2.msg_bytes.Response_Control::1      8633280                      
system.ruby.network.routers6.throttle3.link_utilization     1.196633                      
system.ruby.network.routers6.throttle3.msg_count.Request_Control::2        13235                      
system.ruby.network.routers6.throttle3.msg_count.Response_Data::1     12481426                      
system.ruby.network.routers6.throttle3.msg_count.Response_Control::1     12462692                      
system.ruby.network.routers6.throttle3.msg_bytes.Request_Control::2       105880                      
system.ruby.network.routers6.throttle3.msg_bytes.Response_Data::1    898662672                      
system.ruby.network.routers6.throttle3.msg_bytes.Response_Control::1     99701536                      
system.ruby.network.routers6.throttle4.link_utilization     1.330170                      
system.ruby.network.routers6.throttle4.msg_count.Control::0     13573437                      
system.ruby.network.routers6.throttle4.msg_count.Response_Data::1      5340249                      
system.ruby.network.routers6.throttle4.msg_count.Response_Control::1      4840124                      
system.ruby.network.routers6.throttle4.msg_count.Response_Control::2     13572678                      
system.ruby.network.routers6.throttle4.msg_count.Writeback_Data::0      5615947                      
system.ruby.network.routers6.throttle4.msg_count.Writeback_Data::1        24321                      
system.ruby.network.routers6.throttle4.msg_count.Writeback_Control::0      7925859                      
system.ruby.network.routers6.throttle4.msg_bytes.Control::0    108587496                      
system.ruby.network.routers6.throttle4.msg_bytes.Response_Data::1    384497928                      
system.ruby.network.routers6.throttle4.msg_bytes.Response_Control::1     38720992                      
system.ruby.network.routers6.throttle4.msg_bytes.Response_Control::2    108581424                      
system.ruby.network.routers6.throttle4.msg_bytes.Writeback_Data::0    404348184                      
system.ruby.network.routers6.throttle4.msg_bytes.Writeback_Data::1      1751112                      
system.ruby.network.routers6.throttle4.msg_bytes.Writeback_Control::0     63406872                      
system.ruby.network.routers6.throttle5.link_utilization     0.270427                      
system.ruby.network.routers6.throttle5.msg_count.Control::0      5340171                      
system.ruby.network.routers6.throttle5.msg_count.Response_Data::1      2253282                      
system.ruby.network.routers6.throttle5.msg_count.Response_Control::1      2585861                      
system.ruby.network.routers6.throttle5.msg_bytes.Control::0     42721368                      
system.ruby.network.routers6.throttle5.msg_bytes.Response_Data::1    162236304                      
system.ruby.network.routers6.throttle5.msg_bytes.Response_Control::1     20686888                      
system.ruby.delayVCHist.vnet_0::bucket_size            8                       # delay histogram for vnet_0
system.ruby.delayVCHist.vnet_0::max_bucket           79                       # delay histogram for vnet_0
system.ruby.delayVCHist.vnet_0::samples      40687921                       # delay histogram for vnet_0
system.ruby.delayVCHist.vnet_0::mean         1.127662                       # delay histogram for vnet_0
system.ruby.delayVCHist.vnet_0::stdev        2.862681                       # delay histogram for vnet_0
system.ruby.delayVCHist.vnet_0           |    35078522     86.21%     86.21% |     5508955     13.54%     99.75% |      100425      0.25%    100.00% |           3      0.00%    100.00% |          11      0.00%    100.00% |           5      0.00%    100.00% |           0      0.00%    100.00% |           0      0.00%    100.00% |           0      0.00%    100.00% |           0      0.00%    100.00% # delay histogram for vnet_0
system.ruby.delayVCHist.vnet_0::total        40687921                       # delay histogram for vnet_0
system.ruby.delayVCHist.vnet_1::bucket_size            2                       # delay histogram for vnet_1
system.ruby.delayVCHist.vnet_1::max_bucket           19                       # delay histogram for vnet_1
system.ruby.delayVCHist.vnet_1::samples      51305037                       # delay histogram for vnet_1
system.ruby.delayVCHist.vnet_1::mean         0.045868                       # delay histogram for vnet_1
system.ruby.delayVCHist.vnet_1::stdev        0.600805                       # delay histogram for vnet_1
system.ruby.delayVCHist.vnet_1           |    50997948     99.40%     99.40% |       17411      0.03%     99.44% |           0      0.00%     99.44% |           0      0.00%     99.44% |      289170      0.56%    100.00% |         508      0.00%    100.00% |           0      0.00%    100.00% |           0      0.00%    100.00% |           0      0.00%    100.00% |           0      0.00%    100.00% # delay histogram for vnet_1
system.ruby.delayVCHist.vnet_1::total        51305037                       # delay histogram for vnet_1
system.ruby.delayVCHist.vnet_2::bucket_size            2                       # delay histogram for vnet_2
system.ruby.delayVCHist.vnet_2::max_bucket           19                       # delay histogram for vnet_2
system.ruby.delayVCHist.vnet_2::samples        202169                       # delay histogram for vnet_2
system.ruby.delayVCHist.vnet_2::mean         0.046323                       # delay histogram for vnet_2
system.ruby.delayVCHist.vnet_2::stdev        0.485949                       # delay histogram for vnet_2
system.ruby.delayVCHist.vnet_2           |      200314     99.08%     99.08% |           0      0.00%     99.08% |        1846      0.91%    100.00% |           0      0.00%    100.00% |           0      0.00%    100.00% |           0      0.00%    100.00% |           0      0.00%    100.00% |           9      0.00%    100.00% |           0      0.00%    100.00% |           0      0.00%    100.00% # delay histogram for vnet_2
system.ruby.delayVCHist.vnet_2::total          202169                       # delay histogram for vnet_2
system.ruby.LD.latency_hist::bucket_size          256                      
system.ruby.LD.latency_hist::max_bucket          2559                      
system.ruby.LD.latency_hist::samples        627667948                      
system.ruby.LD.latency_hist::mean            2.226531                      
system.ruby.LD.latency_hist::gmean           1.077407                      
system.ruby.LD.latency_hist::stdev          14.493493                      
system.ruby.LD.latency_hist              |   627489903     99.97%     99.97% |       47804      0.01%     99.98% |      107311      0.02%    100.00% |       18875      0.00%    100.00% |        2708      0.00%    100.00% |        1139      0.00%    100.00% |         199      0.00%    100.00% |           9      0.00%    100.00% |           0      0.00%    100.00% |           0      0.00%    100.00%
system.ruby.LD.latency_hist::total          627667948                      
system.ruby.LD.hit_latency_hist::bucket_size          256                      
system.ruby.LD.hit_latency_hist::max_bucket         2559                      
system.ruby.LD.hit_latency_hist::samples    627667948                      
system.ruby.LD.hit_latency_hist::mean        2.226531                      
system.ruby.LD.hit_latency_hist::gmean       1.077407                      
system.ruby.LD.hit_latency_hist::stdev      14.493493                      
system.ruby.LD.hit_latency_hist          |   627489903     99.97%     99.97% |       47804      0.01%     99.98% |      107311      0.02%    100.00% |       18875      0.00%    100.00% |        2708      0.00%    100.00% |        1139      0.00%    100.00% |         199      0.00%    100.00% |           9      0.00%    100.00% |           0      0.00%    100.00% |           0      0.00%    100.00%
system.ruby.LD.hit_latency_hist::total      627667948                      
system.ruby.ST.latency_hist::bucket_size          256                      
system.ruby.ST.latency_hist::max_bucket          2559                      
system.ruby.ST.latency_hist::samples        304157192                      
system.ruby.ST.latency_hist::mean            1.556339                      
system.ruby.ST.latency_hist::gmean           1.017905                      
[...]
system.ruby.L0Cache_Controller.S.Inv::total          698                      
system.ruby.L0Cache_Controller.S.L0_Replacement |           8      0.26%      0.26% |        3063     99.74%    100.00%
system.ruby.L0Cache_Controller.S.L0_Replacement::total         3071                      
system.ruby.L0Cache_Controller.E.Load    |   113335033     48.95%     48.95% |   118174767     51.05%    100.00%
system.ruby.L0Cache_Controller.E.Load::total    231509800                      
system.ruby.L0Cache_Controller.E.Ifetch  |  1796195477     76.80%     76.80% |   542479613     23.20%    100.00%
system.ruby.L0Cache_Controller.E.Ifetch::total   2338675090                      
system.ruby.L0Cache_Controller.E.Store   |        4813      0.10%      0.10% |     4626297     99.90%    100.00%
system.ruby.L0Cache_Controller.E.Store::total      4631110                      
system.ruby.L0Cache_Controller.E.Inv     |        3607      2.58%      2.58% |      136235     97.42%    100.00%
system.ruby.L0Cache_Controller.E.Inv::total       139842                      
system.ruby.L0Cache_Controller.E.L0_Replacement |        1426      0.02%      0.02% |     8109604     99.98%    100.00%
system.ruby.L0Cache_Controller.E.L0_Replacement::total      8111030                      
system.ruby.L0Cache_Controller.M.Load    |   282381317     83.22%     83.22% |    56950465     16.78%    100.00%
system.ruby.L0Cache_Controller.M.Load::total    339331782                      
system.ruby.L0Cache_Controller.M.Store   |   287070683     82.22%     82.22% |    62062049     17.78%    100.00%
system.ruby.L0Cache_Controller.M.Store::total    349132732                      
system.ruby.L0Cache_Controller.M.Inv     |        1650      4.57%      4.57% |       34441     95.43%    100.00%
system.ruby.L0Cache_Controller.M.Inv::total        36091                      
system.ruby.L0Cache_Controller.M.L0_Replacement |     1089521     19.14%     19.14% |     4603429     80.86%    100.00%
system.ruby.L0Cache_Controller.M.L0_Replacement::total      5692950                      
system.ruby.L0Cache_Controller.IS.Data   |          51      1.34%      1.34% |        3743     98.66%    100.00%
system.ruby.L0Cache_Controller.IS.Data::total         3794                      
system.ruby.L0Cache_Controller.IS.Data_Exclusive |       10327      0.08%      0.08% |    12872549     99.92%    100.00%
system.ruby.L0Cache_Controller.IS.Data_Exclusive::total     12882876                      
system.ruby.L0Cache_Controller.IM.Data_Exclusive |     1086453     98.91%     98.91% |       11931      1.09%    100.00%
system.ruby.L0Cache_Controller.IM.Data_Exclusive::total      1098384                      
system.ruby.L0Cache_Controller.SM.Data_Exclusive |          18     78.26%     78.26% |           5     21.74%    100.00%
system.ruby.L0Cache_Controller.SM.Data_Exclusive::total           23                      
system.ruby.L1Cache_Controller.Load      |       10378      0.08%      0.08% |    12876295     99.92%    100.00%
system.ruby.L1Cache_Controller.Load::total     12886673                      
system.ruby.L1Cache_Controller.Store     |     1086471     98.91%     98.91% |       11936      1.09%    100.00%
system.ruby.L1Cache_Controller.Store::total      1098407                      
system.ruby.L1Cache_Controller.WriteBack |     1090947      7.90%      7.90% |    12713033     92.10%    100.00%
system.ruby.L1Cache_Controller.WriteBack::total     13803980                      
system.ruby.L1Cache_Controller.L0_DataAck |        1650      4.57%      4.57% |       34441     95.43%    100.00%
system.ruby.L1Cache_Controller.L0_DataAck::total        36091                      
system.ruby.L1Cache_Controller.Inv       |       12137     47.92%     47.92% |       13188     52.08%    100.00%
system.ruby.L1Cache_Controller.Inv::total        25325                      
system.ruby.L1Cache_Controller.L0_Invalidate_Own |        7158      2.05%      2.05% |      342628     97.95%    100.00%
system.ruby.L1Cache_Controller.L0_Invalidate_Own::total       349786                      
system.ruby.L1Cache_Controller.L0_Invalidate_Else |        3406     91.36%     91.36% |         322      8.64%    100.00%
system.ruby.L1Cache_Controller.L0_Invalidate_Else::total         3728                      
system.ruby.L1Cache_Controller.L1_Replacement |     1079124      7.97%      7.97% |    12463490     92.03%    100.00%
system.ruby.L1Cache_Controller.L1_Replacement::total     13542614                      
system.ruby.L1Cache_Controller.Fwd_GETX  |           8     88.89%     88.89% |           1     11.11%    100.00%
system.ruby.L1Cache_Controller.Fwd_GETX::total            9                      
system.ruby.L1Cache_Controller.Fwd_GETS  |          32     41.03%     41.03% |          46     58.97%    100.00%
system.ruby.L1Cache_Controller.Fwd_GETS::total           78                      
system.ruby.L1Cache_Controller.Data_Exclusive |        5535      0.04%      0.04% |    12470399     99.96%    100.00%
system.ruby.L1Cache_Controller.Data_Exclusive::total     12475934                      
system.ruby.L1Cache_Controller.DataS_fromL1 |          46     58.97%     58.97% |          32     41.03%    100.00%
system.ruby.L1Cache_Controller.DataS_fromL1::total           78                      
system.ruby.L1Cache_Controller.Data_all_Acks |     1086407     99.00%     99.00% |       10995      1.00%    100.00%
system.ruby.L1Cache_Controller.Data_all_Acks::total      1097402                      
system.ruby.L1Cache_Controller.L0_Ack    |        3632      2.58%      2.58% |      137034     97.42%    100.00%
system.ruby.L1Cache_Controller.L0_Ack::total       140666                      
system.ruby.L1Cache_Controller.Ack       |          18     78.26%     78.26% |           5     21.74%    100.00%
system.ruby.L1Cache_Controller.Ack::total           23                      
system.ruby.L1Cache_Controller.Ack_all   |          18     78.26%     78.26% |           5     21.74%    100.00%
system.ruby.L1Cache_Controller.Ack_all::total           23                      
system.ruby.L1Cache_Controller.WB_Ack    |     1079124      7.97%      7.97% |    12462682     92.03%    100.00%
system.ruby.L1Cache_Controller.WB_Ack::total     13541806                      
system.ruby.L1Cache_Controller.NP.Load   |        5576      0.04%      0.04% |    12471190     99.96%    100.00%
system.ruby.L1Cache_Controller.NP.Load::total     12476766                      
system.ruby.L1Cache_Controller.NP.Store  |     1086407     99.07%     99.07% |       10236      0.93%    100.00%
system.ruby.L1Cache_Controller.NP.Store::total      1096643                      
system.ruby.L1Cache_Controller.NP.Inv    |           0      0.00%      0.00% |          49    100.00%    100.00%
system.ruby.L1Cache_Controller.NP.Inv::total           49                      
system.ruby.L1Cache_Controller.I.Load    |           5    100.00%    100.00% |           0      0.00%    100.00%
system.ruby.L1Cache_Controller.I.Load::total            5                      
system.ruby.L1Cache_Controller.S.Load    |           2      0.07%      0.07% |        2939     99.93%    100.00%
system.ruby.L1Cache_Controller.S.Load::total         2941                      
system.ruby.L1Cache_Controller.S.Store   |          18     78.26%     78.26% |           5     21.74%    100.00%
system.ruby.L1Cache_Controller.S.Store::total           23                      
system.ruby.L1Cache_Controller.S.L0_Invalidate_Own |           0      0.00%      0.00% |         799    100.00%    100.00%
system.ruby.L1Cache_Controller.S.L0_Invalidate_Own::total          799                      
system.ruby.L1Cache_Controller.S.L0_Invalidate_Else |          25    100.00%    100.00% |           0      0.00%    100.00%
system.ruby.L1Cache_Controller.S.L0_Invalidate_Else::total           25                      
system.ruby.L1Cache_Controller.SS.Load   |           3     18.75%     18.75% |          13     81.25%    100.00%
system.ruby.L1Cache_Controller.SS.Load::total           16                      
system.ruby.L1Cache_Controller.SS.Inv    |          54     75.00%     75.00% |          18     25.00%    100.00%
system.ruby.L1Cache_Controller.SS.Inv::total           72                      
system.ruby.L1Cache_Controller.SS.L1_Replacement |           0      0.00%      0.00% |         808    100.00%    100.00%
system.ruby.L1Cache_Controller.SS.L1_Replacement::total          808                      
system.ruby.L1Cache_Controller.E.WriteBack |        1097      0.01%      0.01% |    12306285     99.99%    100.00%
system.ruby.L1Cache_Controller.E.WriteBack::total     12307382                      
system.ruby.L1Cache_Controller.E.L0_Invalidate_Own |        3012      1.81%      1.81% |      163716     98.19%    100.00%
system.ruby.L1Cache_Controller.E.L0_Invalidate_Own::total       166728                      
system.ruby.L1Cache_Controller.E.L0_Invalidate_Else |         963     98.47%     98.47% |          15      1.53%    100.00%
system.ruby.L1Cache_Controller.E.L0_Invalidate_Else::total          978                      
system.ruby.L1Cache_Controller.EE.Load   |           7    100.00%    100.00% |           0      0.00%    100.00%
system.ruby.L1Cache_Controller.EE.Load::total            7                      
system.ruby.L1Cache_Controller.EE.Inv    |         883    100.00%    100.00% |           0      0.00%    100.00%
system.ruby.L1Cache_Controller.EE.Inv::total          883                      
system.ruby.L1Cache_Controller.EE.L1_Replacement |        2567      1.87%      1.87% |      134933     98.13%    100.00%
system.ruby.L1Cache_Controller.EE.L1_Replacement::total       137500                      
system.ruby.L1Cache_Controller.EE.Fwd_GETX |           3    100.00%    100.00% |           0      0.00%    100.00%
system.ruby.L1Cache_Controller.EE.Fwd_GETX::total            3                      
system.ruby.L1Cache_Controller.EE.Fwd_GETS |          23     62.16%     62.16% |          14     37.84%    100.00%
system.ruby.L1Cache_Controller.EE.Fwd_GETS::total           37                      
system.ruby.L1Cache_Controller.M.WriteBack |     1089850     72.82%     72.82% |      406748     27.18%    100.00%
system.ruby.L1Cache_Controller.M.WriteBack::total      1496598                      
system.ruby.L1Cache_Controller.M.L0_Invalidate_Own |         567      7.70%      7.70% |        6799     92.30%    100.00%
system.ruby.L1Cache_Controller.M.L0_Invalidate_Own::total         7366                      
system.ruby.L1Cache_Controller.M.L0_Invalidate_Else |         715     83.04%     83.04% |         146     16.96%    100.00%
system.ruby.L1Cache_Controller.M.L0_Invalidate_Else::total          861                      
system.ruby.L1Cache_Controller.MM.Load   |        4785      1.18%      1.18% |      402150     98.82%    100.00%
system.ruby.L1Cache_Controller.MM.Load::total       406935                      
system.ruby.L1Cache_Controller.MM.Store  |          46      2.64%      2.64% |        1695     97.36%    100.00%
system.ruby.L1Cache_Controller.MM.Store::total         1741                      
system.ruby.L1Cache_Controller.MM.Inv    |       11200     46.05%     46.05% |       13121     53.95%    100.00%
system.ruby.L1Cache_Controller.MM.Inv::total        24321                      
system.ruby.L1Cache_Controller.MM.L1_Replacement |     1076557      8.03%      8.03% |    12327749     91.97%    100.00%
system.ruby.L1Cache_Controller.MM.L1_Replacement::total     13404306                      
system.ruby.L1Cache_Controller.MM.Fwd_GETX |           5     83.33%     83.33% |           1     16.67%    100.00%
system.ruby.L1Cache_Controller.MM.Fwd_GETX::total            6                      
system.ruby.L1Cache_Controller.MM.Fwd_GETS |           9     21.95%     21.95% |          32     78.05%    100.00%
system.ruby.L1Cache_Controller.MM.Fwd_GETS::total           41                      
system.ruby.L1Cache_Controller.IS.Data_Exclusive |        5535      0.04%      0.04% |    12470399     99.96%    100.00%
system.ruby.L1Cache_Controller.IS.Data_Exclusive::total     12475934                      
system.ruby.L1Cache_Controller.IS.DataS_fromL1 |          46     58.97%     58.97% |          32     41.03%    100.00%
system.ruby.L1Cache_Controller.IS.DataS_fromL1::total           78                      
system.ruby.L1Cache_Controller.IS.Data_all_Acks |           0      0.00%      0.00% |         759    100.00%    100.00%
system.ruby.L1Cache_Controller.IS.Data_all_Acks::total          759                      
system.ruby.L1Cache_Controller.IM.Data_all_Acks |     1086407     99.07%     99.07% |       10236      0.93%    100.00%
system.ruby.L1Cache_Controller.IM.Data_all_Acks::total      1096643                      
system.ruby.L1Cache_Controller.SM.Ack    |          18     78.26%     78.26% |           5     21.74%    100.00%
system.ruby.L1Cache_Controller.SM.Ack::total           23                      
system.ruby.L1Cache_Controller.SM.Ack_all |          18     78.26%     78.26% |           5     21.74%    100.00%
system.ruby.L1Cache_Controller.SM.Ack_all::total           23                      
system.ruby.L1Cache_Controller.M_I.Load  |           0      0.00%      0.00% |           3    100.00%    100.00%
system.ruby.L1Cache_Controller.M_I.Load::total            3                      
system.ruby.L1Cache_Controller.M_I.WB_Ack |     1079124      7.97%      7.97% |    12462682     92.03%    100.00%
system.ruby.L1Cache_Controller.M_I.WB_Ack::total     13541806                      
system.ruby.L1Cache_Controller.S_IL0.L0_Invalidate_Own |           0      0.00%      0.00% |         799    100.00%    100.00%
system.ruby.L1Cache_Controller.S_IL0.L0_Invalidate_Own::total          799                      
system.ruby.L1Cache_Controller.S_IL0.L0_Invalidate_Else |          25    100.00%    100.00% |           0      0.00%    100.00%
system.ruby.L1Cache_Controller.S_IL0.L0_Invalidate_Else::total           25                      
system.ruby.L1Cache_Controller.S_IL0.L0_Ack |          25      3.03%      3.03% |         799     96.97%    100.00%
system.ruby.L1Cache_Controller.S_IL0.L0_Ack::total          824                      
system.ruby.L1Cache_Controller.E_IL0.L0_DataAck |         492      1.68%      1.68% |       28784     98.32%    100.00%
system.ruby.L1Cache_Controller.E_IL0.L0_DataAck::total        29276                      
system.ruby.L1Cache_Controller.E_IL0.L0_Invalidate_Own |        3012      1.81%      1.81% |      163716     98.19%    100.00%
system.ruby.L1Cache_Controller.E_IL0.L0_Invalidate_Own::total       166728                      
system.ruby.L1Cache_Controller.E_IL0.L0_Invalidate_Else |         963     98.47%     98.47% |          15      1.53%    100.00%
system.ruby.L1Cache_Controller.E_IL0.L0_Invalidate_Else::total          978                      
system.ruby.L1Cache_Controller.E_IL0.L0_Ack |        3483      2.52%      2.52% |      134947     97.48%    100.00%
system.ruby.L1Cache_Controller.E_IL0.L0_Ack::total       138430                      
system.ruby.L1Cache_Controller.M_IL0.L0_DataAck |        1158     16.99%     16.99% |        5657     83.01%    100.00%
system.ruby.L1Cache_Controller.M_IL0.L0_DataAck::total         6815                      
system.ruby.L1Cache_Controller.M_IL0.L0_Invalidate_Own |         567      7.70%      7.70% |        6799     92.30%    100.00%
system.ruby.L1Cache_Controller.M_IL0.L0_Invalidate_Own::total         7366                      
system.ruby.L1Cache_Controller.M_IL0.L0_Invalidate_Else |         715     83.04%     83.04% |         146     16.96%    100.00%
system.ruby.L1Cache_Controller.M_IL0.L0_Invalidate_Else::total          861                      
system.ruby.L1Cache_Controller.M_IL0.L0_Ack |         124      8.78%      8.78% |        1288     91.22%    100.00%
system.ruby.L1Cache_Controller.M_IL0.L0_Ack::total         1412                      
system.ruby.L2Cache_Controller.L1_GETS       12476811      0.00%      0.00%
system.ruby.L2Cache_Controller.L1_GETX        1096652      0.00%      0.00%
system.ruby.L2Cache_Controller.L1_UPGRADE           23      0.00%      0.00%
system.ruby.L2Cache_Controller.L1_PUTX       13541806      0.00%      0.00%
system.ruby.L2Cache_Controller.L2_Replacement      2229117      0.00%      0.00%
system.ruby.L2Cache_Controller.L2_Replacement_clean      2610026      0.00%      0.00%
system.ruby.L2Cache_Controller.Mem_Data       5340171      0.00%      0.00%
system.ruby.L2Cache_Controller.Mem_Ack        4839143      0.00%      0.00%
system.ruby.L2Cache_Controller.WB_Data          24235      0.00%      0.00%
system.ruby.L2Cache_Controller.WB_Data_clean          164      0.00%      0.00%
system.ruby.L2Cache_Controller.Ack                 49      0.00%      0.00%
system.ruby.L2Cache_Controller.Ack_all            932      0.00%      0.00%
system.ruby.L2Cache_Controller.Unblock             78      0.00%      0.00%
system.ruby.L2Cache_Controller.Exclusive_Unblock     13572600      0.00%      0.00%
system.ruby.L2Cache_Controller.NP.L1_GETS      4244090      0.00%      0.00%
system.ruby.L2Cache_Controller.NP.L1_GETX      1096081      0.00%      0.00%
system.ruby.L2Cache_Controller.SS.L1_GETS          759      0.00%      0.00%
system.ruby.L2Cache_Controller.SS.L1_UPGRADE           23      0.00%      0.00%
system.ruby.L2Cache_Controller.SS.L2_Replacement           47      0.00%      0.00%
system.ruby.L2Cache_Controller.SS.L2_Replacement_clean            2      0.00%      0.00%
system.ruby.L2Cache_Controller.M.L1_GETS      8231844      0.00%      0.00%
system.ruby.L2Cache_Controller.M.L1_GETX          553      0.00%      0.00%
system.ruby.L2Cache_Controller.M.L2_Replacement      2229056      0.00%      0.00%
system.ruby.L2Cache_Controller.M.L2_Replacement_clean      2584834      0.00%      0.00%
system.ruby.L2Cache_Controller.MT.L1_GETS           78      0.00%      0.00%
system.ruby.L2Cache_Controller.MT.L1_GETX            9      0.00%      0.00%
system.ruby.L2Cache_Controller.MT.L1_PUTX     13541806      0.00%      0.00%
system.ruby.L2Cache_Controller.MT.L2_Replacement           14      0.00%      0.00%
system.ruby.L2Cache_Controller.MT.L2_Replacement_clean        25190      0.00%      0.00%
system.ruby.L2Cache_Controller.M_I.L1_GETS           39      0.00%      0.00%
system.ruby.L2Cache_Controller.M_I.L1_GETX            9      0.00%      0.00%
system.ruby.L2Cache_Controller.M_I.Mem_Ack      4839143      0.00%      0.00%
system.ruby.L2Cache_Controller.MT_I.WB_Data            5      0.00%      0.00%
system.ruby.L2Cache_Controller.MT_I.Ack_all            9      0.00%      0.00%
system.ruby.L2Cache_Controller.MCT_I.WB_Data        24165      0.00%      0.00%
system.ruby.L2Cache_Controller.MCT_I.WB_Data_clean          151      0.00%      0.00%
system.ruby.L2Cache_Controller.MCT_I.Ack_all          874      0.00%      0.00%
system.ruby.L2Cache_Controller.I_I.Ack              2      0.00%      0.00%
system.ruby.L2Cache_Controller.I_I.Ack_all            2      0.00%      0.00%
system.ruby.L2Cache_Controller.S_I.Ack             47      0.00%      0.00%
system.ruby.L2Cache_Controller.S_I.Ack_all           47      0.00%      0.00%
system.ruby.L2Cache_Controller.ISS.Mem_Data      4244090      0.00%      0.00%
system.ruby.L2Cache_Controller.IM.Mem_Data      1096081      0.00%      0.00%
system.ruby.L2Cache_Controller.SS_MB.Exclusive_Unblock           23      0.00%      0.00%
system.ruby.L2Cache_Controller.MT_MB.L1_GETS            1      0.00%      0.00%
system.ruby.L2Cache_Controller.MT_MB.Exclusive_Unblock     13572577      0.00%      0.00%
system.ruby.L2Cache_Controller.MT_IIB.WB_Data           65      0.00%      0.00%
system.ruby.L2Cache_Controller.MT_IIB.WB_Data_clean           13      0.00%      0.00%
system.ruby.L2Cache_Controller.MT_SB.Unblock           78      0.00%      0.00%

---------- End Simulation Statistics   ----------
