MODELOPTS=--forwardsparsity 24 --activationcachelinesparsity 8 --backwardsparsity 84 --signalcachelinesparsity 83 --weightupdatesparsity 89 --deltacachelinesparsity 67 --model CIFAR10
CacheSizeOpts=--l1i_size=32kB --l1d_size=32kB --l2_size=256kB --l3_size=20MB
Run SparseCompute in GEM5-Ruby
GEM5=/home/tunji/sc-dnn/code/gem5-stable/build/X86_ZMESI_Three_Level/gem5.opt
SCRIPT=/home/tunji/sc-dnn/code/gem5-stable/configs/example/se.py
PROGDIR=/home/tunji/sc-dnn/code/SparseCompute
PROGOPTS=--samples 8 --threads 8 --forwardsparsity 24 --activationcachelinesparsity 8 --backwardsparsity 84 --signalcachelinesparsity 83 --weightupdatesparsity 89 --deltacachelinesparsity 67 --model CIFAR10 --workers 1 --pass BackwardProp --outputscale 4
SIMOPTS=--ruby --cpu-type=timing --caches --l2cache --num-l3caches=1 --l1d_size=32kB --l1i_size=32kB --l2_size=256kB --l3_size=20MB --num-cpus=9
gem5 Simulator System.  http://gem5.org
gem5 is copyrighted software; use the --copyright option for details.

gem5 compiled Nov 19 2015 16:23:03
gem5 started Nov 23 2015 06:35:03
gem5 executing on tunji-Virtual-Machine
command line: /home/tunji/sc-dnn/code/gem5-stable/build/X86_ZMESI_Three_Level/gem5.opt -d Output/CIFAR10_1W-ZL3-S8_T8_C1/ /home/tunji/sc-dnn/code/gem5-stable/configs/example/se.py --ruby --cpu-type=timing --caches --l2cache --num-l3caches=1 --l1d_size=32kB --l1i_size=32kB --l2_size=256kB --l3_size=20MB --num-cpus=9 -c /home/tunji/sc-dnn/code/SparseCompute/M5SparseCompute -o --kernel 1 --samples 8 --threads 8 --forwardsparsity 24 --activationcachelinesparsity 8 --backwardsparsity 84 --signalcachelinesparsity 83 --weightupdatesparsity 89 --deltacachelinesparsity 67 --model CIFAR10 --workers 1 --pass BackwardProp --outputscale 4
Global frequency set at 1000000000000 ticks per second
warn: DRAM device capacity (8192 Mbytes) does not match the address range assigned (512 Mbytes)
0: system.remote_gdb.listener: listening for remote gdb #0 on port 7005
0: system.remote_gdb.listener: listening for remote gdb #1 on port 7006
0: system.remote_gdb.listener: listening for remote gdb #2 on port 7007
0: system.remote_gdb.listener: listening for remote gdb #3 on port 7008
0: system.remote_gdb.listener: listening for remote gdb #4 on port 7009
0: system.remote_gdb.listener: listening for remote gdb #5 on port 7010
0: system.remote_gdb.listener: listening for remote gdb #6 on port 7011
0: system.remote_gdb.listener: listening for remote gdb #7 on port 7012
0: system.remote_gdb.listener: listening for remote gdb #8 on port 7013
**** REAL SIMULATION ****
info: Entering event queue @ 0.  Starting simulation...
info: Increasing stack size by one page.
warn: ignoring syscall access(5373889, ...)
Model: CIFAR10 
Pass: BackwardProp 
WorkerCount: 1 
ThreadCount: 8 
SampleCount: 8 
ThreadModel: 1 
OutputScale: 4
KernelVersion: UNROLL
FeedForwardSparsity: 24
ActivationCacheLineSparsity: 8
BackPropSparsity: 84
SignalCacheLineSparsity: 83
WeightUpdateSparsity: 89
DeltaCacheLineSparsity: 67
Layers     Threads    GFLOP/s    MSec       FLOPs     
BackwardProp:  5.08 msecs
         0          8       2.73   0.901000 2457600
         1          8       2.72   2.711438 7372800
         2          8       2.87   0.725328 2080768
         3          8       2.86   0.732734 2097152
         4          8       1.42   0.007219 10240
Pass_run_time: 0.040633secs
Total_run_time: 0.040633secs
Exiting @ tick 3031840252500 because target called exit()
