
---------- Begin Simulation Statistics ----------
sim_seconds                                  5.679254                       # Number of seconds simulated
sim_ticks                                5679253501000                       # Number of ticks simulated
final_tick                               5679253501000                       # Number of ticks from beginning of simulation (restored from checkpoints and never reset)
sim_freq                                 1000000000000                       # Frequency of simulated ticks
host_inst_rate                                 125902                       # Simulator instruction rate (inst/s)
host_op_rate                                   352327                       # Simulator op (including micro ops) rate (op/s)
host_tick_rate                              210546274                       # Simulator tick rate (ticks/s)
host_mem_usage                                4017788                       # Number of bytes of host memory used
host_seconds                                 26973.90                       # Real time elapsed on the host
sim_insts                                  3396070879                       # Number of instructions simulated
sim_ops                                    9503631963                       # Number of ops (including micro ops) simulated
system.voltage_domain.voltage                       1                       # Voltage in Volts
system.clk_domain.clock                          1000                       # Clock period in ticks
system.mem_ctrls.bytes_read::ruby.dir_cntrl0    387567424                       # Number of bytes read from this memory
system.mem_ctrls.bytes_read::total          387567424                       # Number of bytes read from this memory
system.mem_ctrls.bytes_written::ruby.dir_cntrl0    221667840                       # Number of bytes written to this memory
system.mem_ctrls.bytes_written::total       221667840                       # Number of bytes written to this memory
system.mem_ctrls.num_reads::ruby.dir_cntrl0      6055741                       # Number of read requests responded to by this memory
system.mem_ctrls.num_reads::total             6055741                       # Number of read requests responded to by this memory
system.mem_ctrls.num_writes::ruby.dir_cntrl0      3463560                       # Number of write requests responded to by this memory
system.mem_ctrls.num_writes::total            3463560                       # Number of write requests responded to by this memory
system.mem_ctrls.bw_read::ruby.dir_cntrl0     68242670                       # Total read bandwidth from this memory (bytes/s)
system.mem_ctrls.bw_read::total              68242670                       # Total read bandwidth from this memory (bytes/s)
system.mem_ctrls.bw_write::ruby.dir_cntrl0     39031158                       # Write bandwidth from this memory (bytes/s)
system.mem_ctrls.bw_write::total             39031158                       # Write bandwidth from this memory (bytes/s)
system.mem_ctrls.bw_total::ruby.dir_cntrl0    107273828                       # Total bandwidth to/from this memory (bytes/s)
system.mem_ctrls.bw_total::total            107273828                       # Total bandwidth to/from this memory (bytes/s)
system.mem_ctrls.memReq                       9519301                       # Total number of memory requests
system.mem_ctrls.memRead                      6055741                       # Number of memory reads
system.mem_ctrls.memWrite                     3463560                       # Number of memory writes
system.mem_ctrls.memRefresh                  71610589                       # Number of memory refreshes
system.mem_ctrls.memWaitCycles               30518970                       # Delay stalled at the head of the bank queue
system.mem_ctrls.memInputQ                      12250                       # Delay in the input queue
system.mem_ctrls.memBankQ                      164840                       # Delay behind the head of the bank queue
system.mem_ctrls.totalStalls                 30696060                       # Total number of stall cycles
system.mem_ctrls.stallsPerReq                3.224613                       # Expected number of stall cycles per request
system.mem_ctrls.memBankBusy                 30169221                       # memory stalls due to busy bank
system.mem_ctrls.memBusBusy                    230888                       # memory stalls due to busy bus
system.mem_ctrls.memReadWriteBusy                6614                       # memory stalls due to read write turnaround
system.mem_ctrls.memDataBusBusy                 50845                       # memory stalls due to read read turnaround
system.mem_ctrls.memArbWait                     61402                       # memory stalls due to arbitration
system.mem_ctrls.memBankCount            |      297322      3.12%      3.12% |      297050      3.12%      6.24% |      297538      3.13%      9.37% |      297558      3.13%     12.50% |      297580      3.13%     15.62% |      297619      3.13%     18.75% |      297414      3.12%     21.87% |      297609      3.13%     25.00% |      297257      3.12%     28.12% |      297413      3.12%     31.25% |      298086      3.13%     34.38% |      297443      3.12%     37.50% |      297540      3.13%     40.63% |      298508      3.14%     43.76% |      297816      3.13%     46.89% |      297821      3.13%     50.02% |      298438      3.14%     53.16% |      296539      3.12%     56.27% |      296375      3.11%     59.38% |      296571      3.12%     62.50% |      297264      3.12%     65.62% |      297237      3.12%     68.74% |      298049      3.13%     71.88% |      297881      3.13%     75.00% |      297767      3.13%     78.13% |      297195      3.12%     81.25% |      297224      3.12%     84.38% |      297415      3.12%     87.50% |      296637      3.12%     90.62% |      297564      3.13%     93.74% |      297898      3.13%     96.87% |      297673      3.13%    100.00% # Number of accesses per bank
system.mem_ctrls.memBankCount::total          9519301                       # Number of accesses per bank
system.cpu_voltage_domain.voltage                   1                       # Voltage in Volts
system.cpu_clk_domain.clock                       500                       # Clock period in ticks
system.cpu0.apic_clk_domain.clock                8000                       # Clock period in ticks
system.cpu0.workload.num_syscalls                 180                       # Number of system calls
system.cpu0.numCycles                     11358507002                       # number of cpu cycles simulated
system.cpu0.numWorkItemsStarted                     0                       # number of work items this cpu started
system.cpu0.numWorkItemsCompleted                   0                       # number of work items this cpu completed
system.cpu0.committedInsts                 3163761951                       # Number of instructions committed
system.cpu0.committedOps                   9039039183                       # Number of ops (including micro ops) committed
system.cpu0.num_int_alu_accesses           8526745911                       # Number of integer alu accesses
system.cpu0.num_fp_alu_accesses             216644550                       # Number of float alu accesses
system.cpu0.num_func_calls                  304262268                       # number of times a function call or return occured
system.cpu0.num_conditional_control_insts    698744597                       # number of instructions that are conditional controls
system.cpu0.num_int_insts                  8526745911                       # number of integer instructions
system.cpu0.num_fp_insts                    216644550                       # number of float instructions
system.cpu0.num_int_register_reads        17963947983                       # number of times the integer registers were read
system.cpu0.num_int_register_writes        8494406206                       # number of times the integer registers were written
system.cpu0.num_fp_register_reads           348151590                       # number of times the floating registers were read
system.cpu0.num_fp_register_writes          170275978                       # number of times the floating registers were written
system.cpu0.num_cc_register_reads          7221765289                       # number of times the CC registers were read
system.cpu0.num_cc_register_writes         2706757883                       # number of times the CC registers were written
system.cpu0.num_mem_refs                   1378284898                       # number of memory refs
system.cpu0.num_load_insts                  837285763                       # Number of load instructions
system.cpu0.num_store_insts                 540999135                       # Number of store instructions
system.cpu0.num_idle_cycles                  0.002000                       # Number of idle cycles
system.cpu0.num_busy_cycles              11358507001.997999                       # Number of busy cycles
system.cpu0.not_idle_fraction                1.000000                       # Percentage of non-idle cycles
system.cpu0.idle_fraction                    0.000000                       # Percentage of idle cycles
system.cpu0.Branches                       1148982105                       # Number of branches fetched
system.cpu0.op_class::No_OpClass            177947950      1.97%      1.97% # Class of executed instruction
system.cpu0.op_class::IntAlu               6552577206     72.49%     74.46% # Class of executed instruction
system.cpu0.op_class::IntMult                     389      0.00%     74.46% # Class of executed instruction
system.cpu0.op_class::IntDiv                759953519      8.41%     82.87% # Class of executed instruction
system.cpu0.op_class::FloatAdd              170275221      1.88%     84.75% # Class of executed instruction
system.cpu0.op_class::FloatCmp                      0      0.00%     84.75% # Class of executed instruction
system.cpu0.op_class::FloatCvt                      0      0.00%     84.75% # Class of executed instruction
system.cpu0.op_class::FloatMult                     0      0.00%     84.75% # Class of executed instruction
system.cpu0.op_class::FloatDiv                      0      0.00%     84.75% # Class of executed instruction
system.cpu0.op_class::FloatSqrt                     0      0.00%     84.75% # Class of executed instruction
system.cpu0.op_class::SimdAdd                       0      0.00%     84.75% # Class of executed instruction
system.cpu0.op_class::SimdAddAcc                    0      0.00%     84.75% # Class of executed instruction
system.cpu0.op_class::SimdAlu                       0      0.00%     84.75% # Class of executed instruction
system.cpu0.op_class::SimdCmp                       0      0.00%     84.75% # Class of executed instruction
system.cpu0.op_class::SimdCvt                       0      0.00%     84.75% # Class of executed instruction
system.cpu0.op_class::SimdMisc                      0      0.00%     84.75% # Class of executed instruction
system.cpu0.op_class::SimdMult                      0      0.00%     84.75% # Class of executed instruction
system.cpu0.op_class::SimdMultAcc                   0      0.00%     84.75% # Class of executed instruction
system.cpu0.op_class::SimdShift                     0      0.00%     84.75% # Class of executed instruction
system.cpu0.op_class::SimdShiftAcc                  0      0.00%     84.75% # Class of executed instruction
system.cpu0.op_class::SimdSqrt                      0      0.00%     84.75% # Class of executed instruction
system.cpu0.op_class::SimdFloatAdd                  0      0.00%     84.75% # Class of executed instruction
system.cpu0.op_class::SimdFloatAlu                  0      0.00%     84.75% # Class of executed instruction
system.cpu0.op_class::SimdFloatCmp                  0      0.00%     84.75% # Class of executed instruction
system.cpu0.op_class::SimdFloatCvt                  0      0.00%     84.75% # Class of executed instruction
system.cpu0.op_class::SimdFloatDiv                  0      0.00%     84.75% # Class of executed instruction
system.cpu0.op_class::SimdFloatMisc                 0      0.00%     84.75% # Class of executed instruction
system.cpu0.op_class::SimdFloatMult                 0      0.00%     84.75% # Class of executed instruction
system.cpu0.op_class::SimdFloatMultAcc              0      0.00%     84.75% # Class of executed instruction
system.cpu0.op_class::SimdFloatSqrt                 0      0.00%     84.75% # Class of executed instruction
system.cpu0.op_class::MemRead               837285763      9.26%     94.01% # Class of executed instruction
system.cpu0.op_class::MemWrite              540999135      5.99%    100.00% # Class of executed instruction
system.cpu0.op_class::IprAccess                     0      0.00%    100.00% # Class of executed instruction
system.cpu0.op_class::InstPrefetch                  0      0.00%    100.00% # Class of executed instruction
system.cpu0.op_class::total                9039039183                       # Class of executed instruction
system.cpu1.apic_clk_domain.clock                8000                       # Clock period in ticks
system.cpu1.numCycles                     11354615822                       # number of cpu cycles simulated
system.cpu1.numWorkItemsStarted                     0                       # number of work items this cpu started
system.cpu1.numWorkItemsCompleted                   0                       # number of work items this cpu completed
system.cpu1.committedInsts                   58077232                       # Number of instructions committed
system.cpu1.committedOps                    116148195                       # Number of ops (including micro ops) committed
system.cpu1.num_int_alu_accesses             87175319                       # Number of integer alu accesses
system.cpu1.num_fp_alu_accesses              56894279                       # Number of float alu accesses
system.cpu1.num_func_calls                     161815                       # number of times a function call or return occured
system.cpu1.num_conditional_control_insts      7134452                       # number of instructions that are conditional controls
system.cpu1.num_int_insts                    87175319                       # number of integer instructions
system.cpu1.num_fp_insts                     56894279                       # number of float instructions
system.cpu1.num_int_register_reads          153196448                       # number of times the integer registers were read
system.cpu1.num_int_register_writes          52032168                       # number of times the integer registers were written
system.cpu1.num_fp_register_reads            86190677                       # number of times the floating registers were read
system.cpu1.num_fp_register_writes           56813392                       # number of times the floating registers were written
system.cpu1.num_cc_register_reads            42887640                       # number of times the CC registers were read
system.cpu1.num_cc_register_writes           42862530                       # number of times the CC registers were written
system.cpu1.num_mem_refs                     28338623                       # number of memory refs
system.cpu1.num_load_insts                   28176742                       # Number of load instructions
system.cpu1.num_store_insts                    161881                       # Number of store instructions
system.cpu1.num_idle_cycles              11086168601.754976                       # Number of idle cycles
system.cpu1.num_busy_cycles              268447220.245024                       # Number of busy cycles
system.cpu1.not_idle_fraction                0.023642                       # Percentage of non-idle cycles
system.cpu1.idle_fraction                    0.976358                       # Percentage of idle cycles
system.cpu1.Branches                          7383422                       # Number of branches fetched
system.cpu1.op_class::No_OpClass                    2      0.00%      0.00% # Class of executed instruction
system.cpu1.op_class::IntAlu                 58594024     50.45%     50.45% # Class of executed instruction
system.cpu1.op_class::IntMult                  242657      0.21%     50.66% # Class of executed instruction
system.cpu1.op_class::IntDiv                       14      0.00%     50.66% # Class of executed instruction
system.cpu1.op_class::FloatAdd               28972875     24.94%     75.60% # Class of executed instruction
system.cpu1.op_class::FloatCmp                      0      0.00%     75.60% # Class of executed instruction
system.cpu1.op_class::FloatCvt                      0      0.00%     75.60% # Class of executed instruction
system.cpu1.op_class::FloatMult                     0      0.00%     75.60% # Class of executed instruction
system.cpu1.op_class::FloatDiv                      0      0.00%     75.60% # Class of executed instruction
system.cpu1.op_class::FloatSqrt                     0      0.00%     75.60% # Class of executed instruction
system.cpu1.op_class::SimdAdd                       0      0.00%     75.60% # Class of executed instruction
system.cpu1.op_class::SimdAddAcc                    0      0.00%     75.60% # Class of executed instruction
system.cpu1.op_class::SimdAlu                       0      0.00%     75.60% # Class of executed instruction
system.cpu1.op_class::SimdCmp                       0      0.00%     75.60% # Class of executed instruction
system.cpu1.op_class::SimdCvt                       0      0.00%     75.60% # Class of executed instruction
system.cpu1.op_class::SimdMisc                      0      0.00%     75.60% # Class of executed instruction
system.cpu1.op_class::SimdMult                      0      0.00%     75.60% # Class of executed instruction
system.cpu1.op_class::SimdMultAcc                   0      0.00%     75.60% # Class of executed instruction
system.cpu1.op_class::SimdShift                     0      0.00%     75.60% # Class of executed instruction
system.cpu1.op_class::SimdShiftAcc                  0      0.00%     75.60% # Class of executed instruction
system.cpu1.op_class::SimdSqrt                      0      0.00%     75.60% # Class of executed instruction
system.cpu1.op_class::SimdFloatAdd                  0      0.00%     75.60% # Class of executed instruction
system.cpu1.op_class::SimdFloatAlu                  0      0.00%     75.60% # Class of executed instruction
system.cpu1.op_class::SimdFloatCmp                  0      0.00%     75.60% # Class of executed instruction
system.cpu1.op_class::SimdFloatCvt                  0      0.00%     75.60% # Class of executed instruction
system.cpu1.op_class::SimdFloatDiv                  0      0.00%     75.60% # Class of executed instruction
system.cpu1.op_class::SimdFloatMisc                 0      0.00%     75.60% # Class of executed instruction
system.cpu1.op_class::SimdFloatMult                 0      0.00%     75.60% # Class of executed instruction
system.cpu1.op_class::SimdFloatMultAcc              0      0.00%     75.60% # Class of executed instruction
system.cpu1.op_class::SimdFloatSqrt                 0      0.00%     75.60% # Class of executed instruction
system.cpu1.op_class::MemRead                28176742     24.26%     99.86% # Class of executed instruction
system.cpu1.op_class::MemWrite                 161881      0.14%    100.00% # Class of executed instruction
system.cpu1.op_class::IprAccess                     0      0.00%    100.00% # Class of executed instruction
system.cpu1.op_class::InstPrefetch                  0      0.00%    100.00% # Class of executed instruction
system.cpu1.op_class::total                 116148195                       # Class of executed instruction
system.cpu2.apic_clk_domain.clock                8000                       # Clock period in ticks
system.cpu2.numCycles                     11358252406                       # number of cpu cycles simulated
system.cpu2.numWorkItemsStarted                     0                       # number of work items this cpu started
system.cpu2.numWorkItemsCompleted                   0                       # number of work items this cpu completed
system.cpu2.committedInsts                   58077232                       # Number of instructions committed
system.cpu2.committedOps                    116148195                       # Number of ops (including micro ops) committed
system.cpu2.num_int_alu_accesses             87175319                       # Number of integer alu accesses
system.cpu2.num_fp_alu_accesses              56894279                       # Number of float alu accesses
system.cpu2.num_func_calls                     161815                       # number of times a function call or return occured
system.cpu2.num_conditional_control_insts      7134452                       # number of instructions that are conditional controls
system.cpu2.num_int_insts                    87175319                       # number of integer instructions
system.cpu2.num_fp_insts                     56894279                       # number of float instructions
system.cpu2.num_int_register_reads          153196448                       # number of times the integer registers were read
system.cpu2.num_int_register_writes          52032168                       # number of times the integer registers were written
system.cpu2.num_fp_register_reads            86190677                       # number of times the floating registers were read
system.cpu2.num_fp_register_writes           56813392                       # number of times the floating registers were written
system.cpu2.num_cc_register_reads            42887640                       # number of times the CC registers were read
system.cpu2.num_cc_register_writes           42862530                       # number of times the CC registers were written
system.cpu2.num_mem_refs                     28338623                       # number of memory refs
system.cpu2.num_load_insts                   28176742                       # Number of load instructions
system.cpu2.num_store_insts                    161881                       # Number of store instructions
system.cpu2.num_idle_cycles              11086083204.691202                       # Number of idle cycles
system.cpu2.num_busy_cycles              272169201.308798                       # Number of busy cycles
system.cpu2.not_idle_fraction                0.023962                       # Percentage of non-idle cycles
system.cpu2.idle_fraction                    0.976038                       # Percentage of idle cycles
system.cpu2.Branches                          7383422                       # Number of branches fetched
system.cpu2.op_class::No_OpClass                    2      0.00%      0.00% # Class of executed instruction
system.cpu2.op_class::IntAlu                 58594024     50.45%     50.45% # Class of executed instruction
system.cpu2.op_class::IntMult                  242657      0.21%     50.66% # Class of executed instruction
system.cpu2.op_class::IntDiv                       14      0.00%     50.66% # Class of executed instruction
system.cpu2.op_class::FloatAdd               28972875     24.94%     75.60% # Class of executed instruction
system.cpu2.op_class::FloatCmp                      0      0.00%     75.60% # Class of executed instruction
system.cpu2.op_class::FloatCvt                      0      0.00%     75.60% # Class of executed instruction
system.cpu2.op_class::FloatMult                     0      0.00%     75.60% # Class of executed instruction
system.cpu2.op_class::FloatDiv                      0      0.00%     75.60% # Class of executed instruction
system.cpu2.op_class::FloatSqrt                     0      0.00%     75.60% # Class of executed instruction
system.cpu2.op_class::SimdAdd                       0      0.00%     75.60% # Class of executed instruction
system.cpu2.op_class::SimdAddAcc                    0      0.00%     75.60% # Class of executed instruction
system.cpu2.op_class::SimdAlu                       0      0.00%     75.60% # Class of executed instruction
system.cpu2.op_class::SimdCmp                       0      0.00%     75.60% # Class of executed instruction
system.cpu2.op_class::SimdCvt                       0      0.00%     75.60% # Class of executed instruction
system.cpu2.op_class::SimdMisc                      0      0.00%     75.60% # Class of executed instruction
system.cpu2.op_class::SimdMult                      0      0.00%     75.60% # Class of executed instruction
system.cpu2.op_class::SimdMultAcc                   0      0.00%     75.60% # Class of executed instruction
system.cpu2.op_class::SimdShift                     0      0.00%     75.60% # Class of executed instruction
system.cpu2.op_class::SimdShiftAcc                  0      0.00%     75.60% # Class of executed instruction
system.cpu2.op_class::SimdSqrt                      0      0.00%     75.60% # Class of executed instruction
system.cpu2.op_class::SimdFloatAdd                  0      0.00%     75.60% # Class of executed instruction
system.cpu2.op_class::SimdFloatAlu                  0      0.00%     75.60% # Class of executed instruction
system.cpu2.op_class::SimdFloatCmp                  0      0.00%     75.60% # Class of executed instruction
system.cpu2.op_class::SimdFloatCvt                  0      0.00%     75.60% # Class of executed instruction
system.cpu2.op_class::SimdFloatDiv                  0      0.00%     75.60% # Class of executed instruction
system.cpu2.op_class::SimdFloatMisc                 0      0.00%     75.60% # Class of executed instruction
system.cpu2.op_class::SimdFloatMult                 0      0.00%     75.60% # Class of executed instruction
system.cpu2.op_class::SimdFloatMultAcc              0      0.00%     75.60% # Class of executed instruction
system.cpu2.op_class::SimdFloatSqrt                 0      0.00%     75.60% # Class of executed instruction
system.cpu2.op_class::MemRead                28176742     24.26%     99.86% # Class of executed instruction
system.cpu2.op_class::MemWrite                 161881      0.14%    100.00% # Class of executed instruction
system.cpu2.op_class::IprAccess                     0      0.00%    100.00% # Class of executed instruction
system.cpu2.op_class::InstPrefetch                  0      0.00%    100.00% # Class of executed instruction
system.cpu2.op_class::total                 116148195                       # Class of executed instruction
system.cpu3.apic_clk_domain.clock                8000                       # Clock period in ticks
system.cpu3.numCycles                     11354615846                       # number of cpu cycles simulated
system.cpu3.numWorkItemsStarted                     0                       # number of work items this cpu started
system.cpu3.numWorkItemsCompleted                   0                       # number of work items this cpu completed
system.cpu3.committedInsts                   58077232                       # Number of instructions committed
system.cpu3.committedOps                    116148195                       # Number of ops (including micro ops) committed
system.cpu3.num_int_alu_accesses             87175319                       # Number of integer alu accesses
system.cpu3.num_fp_alu_accesses              56894279                       # Number of float alu accesses
system.cpu3.num_func_calls                     161815                       # number of times a function call or return occured
system.cpu3.num_conditional_control_insts      7134452                       # number of instructions that are conditional controls
system.cpu3.num_int_insts                    87175319                       # number of integer instructions
system.cpu3.num_fp_insts                     56894279                       # number of float instructions
system.cpu3.num_int_register_reads          153196448                       # number of times the integer registers were read
system.cpu3.num_int_register_writes          52032168                       # number of times the integer registers were written
system.cpu3.num_fp_register_reads            86190677                       # number of times the floating registers were read
system.cpu3.num_fp_register_writes           56813392                       # number of times the floating registers were written
system.cpu3.num_cc_register_reads            42887640                       # number of times the CC registers were read
system.cpu3.num_cc_register_writes           42862530                       # number of times the CC registers were written
system.cpu3.num_mem_refs                     28338623                       # number of memory refs
system.cpu3.num_load_insts                   28176742                       # Number of load instructions
system.cpu3.num_store_insts                    161881                       # Number of store instructions
system.cpu3.num_idle_cycles              11086169534.875820                       # Number of idle cycles
system.cpu3.num_busy_cycles              268446311.124179                       # Number of busy cycles
system.cpu3.not_idle_fraction                0.023642                       # Percentage of non-idle cycles
system.cpu3.idle_fraction                    0.976358                       # Percentage of idle cycles
system.cpu3.Branches                          7383422                       # Number of branches fetched
system.cpu3.op_class::No_OpClass                    2      0.00%      0.00% # Class of executed instruction
system.cpu3.op_class::IntAlu                 58594024     50.45%     50.45% # Class of executed instruction
system.cpu3.op_class::IntMult                  242657      0.21%     50.66% # Class of executed instruction
system.cpu3.op_class::IntDiv                       14      0.00%     50.66% # Class of executed instruction
system.cpu3.op_class::FloatAdd               28972875     24.94%     75.60% # Class of executed instruction
system.cpu3.op_class::FloatCmp                      0      0.00%     75.60% # Class of executed instruction
system.cpu3.op_class::FloatCvt                      0      0.00%     75.60% # Class of executed instruction
system.cpu3.op_class::FloatMult                     0      0.00%     75.60% # Class of executed instruction
system.cpu3.op_class::FloatDiv                      0      0.00%     75.60% # Class of executed instruction
system.cpu3.op_class::FloatSqrt                     0      0.00%     75.60% # Class of executed instruction
system.cpu3.op_class::SimdAdd                       0      0.00%     75.60% # Class of executed instruction
system.cpu3.op_class::SimdAddAcc                    0      0.00%     75.60% # Class of executed instruction
system.cpu3.op_class::SimdAlu                       0      0.00%     75.60% # Class of executed instruction
system.cpu3.op_class::SimdCmp                       0      0.00%     75.60% # Class of executed instruction
system.cpu3.op_class::SimdCvt                       0      0.00%     75.60% # Class of executed instruction
system.cpu3.op_class::SimdMisc                      0      0.00%     75.60% # Class of executed instruction
system.cpu3.op_class::SimdMult                      0      0.00%     75.60% # Class of executed instruction
system.cpu3.op_class::SimdMultAcc                   0      0.00%     75.60% # Class of executed instruction
system.cpu3.op_class::SimdShift                     0      0.00%     75.60% # Class of executed instruction
system.cpu3.op_class::SimdShiftAcc                  0      0.00%     75.60% # Class of executed instruction
system.cpu3.op_class::SimdSqrt                      0      0.00%     75.60% # Class of executed instruction
system.cpu3.op_class::SimdFloatAdd                  0      0.00%     75.60% # Class of executed instruction
system.cpu3.op_class::SimdFloatAlu                  0      0.00%     75.60% # Class of executed instruction
system.cpu3.op_class::SimdFloatCmp                  0      0.00%     75.60% # Class of executed instruction
system.cpu3.op_class::SimdFloatCvt                  0      0.00%     75.60% # Class of executed instruction
system.cpu3.op_class::SimdFloatDiv                  0      0.00%     75.60% # Class of executed instruction
system.cpu3.op_class::SimdFloatMisc                 0      0.00%     75.60% # Class of executed instruction
system.cpu3.op_class::SimdFloatMult                 0      0.00%     75.60% # Class of executed instruction
system.cpu3.op_class::SimdFloatMultAcc              0      0.00%     75.60% # Class of executed instruction
system.cpu3.op_class::SimdFloatSqrt                 0      0.00%     75.60% # Class of executed instruction
system.cpu3.op_class::MemRead                28176742     24.26%     99.86% # Class of executed instruction
system.cpu3.op_class::MemWrite                 161881      0.14%    100.00% # Class of executed instruction
system.cpu3.op_class::IprAccess                     0      0.00%    100.00% # Class of executed instruction
system.cpu3.op_class::InstPrefetch                  0      0.00%    100.00% # Class of executed instruction
system.cpu3.op_class::total                 116148195                       # Class of executed instruction
system.cpu4.apic_clk_domain.clock                8000                       # Clock period in ticks
system.cpu4.numCycles                     11354615862                       # number of cpu cycles simulated
system.cpu4.numWorkItemsStarted                     0                       # number of work items this cpu started
system.cpu4.numWorkItemsCompleted                   0                       # number of work items this cpu completed
system.cpu4.committedInsts                   58077232                       # Number of instructions committed
system.cpu4.committedOps                    116148195                       # Number of ops (including micro ops) committed
system.cpu4.num_int_alu_accesses             87175319                       # Number of integer alu accesses
system.cpu4.num_fp_alu_accesses              56894279                       # Number of float alu accesses
system.cpu4.num_func_calls                     161815                       # number of times a function call or return occured
system.cpu4.num_conditional_control_insts      7134452                       # number of instructions that are conditional controls
system.cpu4.num_int_insts                    87175319                       # number of integer instructions
system.cpu4.num_fp_insts                     56894279                       # number of float instructions
system.cpu4.num_int_register_reads          153196448                       # number of times the integer registers were read
system.cpu4.num_int_register_writes          52032168                       # number of times the integer registers were written
system.cpu4.num_fp_register_reads            86190677                       # number of times the floating registers were read
system.cpu4.num_fp_register_writes           56813392                       # number of times the floating registers were written
system.cpu4.num_cc_register_reads            42887640                       # number of times the CC registers were read
system.cpu4.num_cc_register_writes           42862530                       # number of times the CC registers were written
system.cpu4.num_mem_refs                     28338623                       # number of memory refs
system.cpu4.num_load_insts                   28176742                       # Number of load instructions
system.cpu4.num_store_insts                    161881                       # Number of store instructions
system.cpu4.num_idle_cycles              11086169946.361887                       # Number of idle cycles
system.cpu4.num_busy_cycles              268445915.638112                       # Number of busy cycles
system.cpu4.not_idle_fraction                0.023642                       # Percentage of non-idle cycles
system.cpu4.idle_fraction                    0.976358                       # Percentage of idle cycles
system.cpu4.Branches                          7383422                       # Number of branches fetched
system.cpu4.op_class::No_OpClass                    2      0.00%      0.00% # Class of executed instruction
system.cpu4.op_class::IntAlu                 58594024     50.45%     50.45% # Class of executed instruction
system.cpu4.op_class::IntMult                  242657      0.21%     50.66% # Class of executed instruction
system.cpu4.op_class::IntDiv                       14      0.00%     50.66% # Class of executed instruction
system.cpu4.op_class::FloatAdd               28972875     24.94%     75.60% # Class of executed instruction
system.cpu4.op_class::FloatCmp                      0      0.00%     75.60% # Class of executed instruction
system.cpu4.op_class::FloatCvt                      0      0.00%     75.60% # Class of executed instruction
system.cpu4.op_class::FloatMult                     0      0.00%     75.60% # Class of executed instruction
system.cpu4.op_class::FloatDiv                      0      0.00%     75.60% # Class of executed instruction
system.cpu4.op_class::FloatSqrt                     0      0.00%     75.60% # Class of executed instruction
system.cpu4.op_class::SimdAdd                       0      0.00%     75.60% # Class of executed instruction
system.cpu4.op_class::SimdAddAcc                    0      0.00%     75.60% # Class of executed instruction
system.cpu4.op_class::SimdAlu                       0      0.00%     75.60% # Class of executed instruction
system.cpu4.op_class::SimdCmp                       0      0.00%     75.60% # Class of executed instruction
system.cpu4.op_class::SimdCvt                       0      0.00%     75.60% # Class of executed instruction
system.cpu4.op_class::SimdMisc                      0      0.00%     75.60% # Class of executed instruction
system.cpu4.op_class::SimdMult                      0      0.00%     75.60% # Class of executed instruction
system.cpu4.op_class::SimdMultAcc                   0      0.00%     75.60% # Class of executed instruction
system.cpu4.op_class::SimdShift                     0      0.00%     75.60% # Class of executed instruction
system.cpu4.op_class::SimdShiftAcc                  0      0.00%     75.60% # Class of executed instruction
system.cpu4.op_class::SimdSqrt                      0      0.00%     75.60% # Class of executed instruction
system.cpu4.op_class::SimdFloatAdd                  0      0.00%     75.60% # Class of executed instruction
system.cpu4.op_class::SimdFloatAlu                  0      0.00%     75.60% # Class of executed instruction
system.cpu4.op_class::SimdFloatCmp                  0      0.00%     75.60% # Class of executed instruction
system.cpu4.op_class::SimdFloatCvt                  0      0.00%     75.60% # Class of executed instruction
system.cpu4.op_class::SimdFloatDiv                  0      0.00%     75.60% # Class of executed instruction
system.cpu4.op_class::SimdFloatMisc                 0      0.00%     75.60% # Class of executed instruction
system.cpu4.op_class::SimdFloatMult                 0      0.00%     75.60% # Class of executed instruction
system.cpu4.op_class::SimdFloatMultAcc              0      0.00%     75.60% # Class of executed instruction
system.cpu4.op_class::SimdFloatSqrt                 0      0.00%     75.60% # Class of executed instruction
system.cpu4.op_class::MemRead                28176742     24.26%     99.86% # Class of executed instruction
system.cpu4.op_class::MemWrite                 161881      0.14%    100.00% # Class of executed instruction
system.cpu4.op_class::IprAccess                     0      0.00%    100.00% # Class of executed instruction
system.cpu4.op_class::InstPrefetch                  0      0.00%    100.00% # Class of executed instruction
system.cpu4.op_class::total                 116148195                       # Class of executed instruction
system.ruby.clk_domain.clock                      500                       # Clock period in ticks
system.ruby.delayHist::bucket_size                 16                       # delay histogram for all message
system.ruby.delayHist::max_bucket                 159                       # delay histogram for all message
system.ruby.delayHist::samples               78158535                       # delay histogram for all message
system.ruby.delayHist::mean                  0.522109                       # delay histogram for all message
system.ruby.delayHist::stdev                 1.925341                       # delay histogram for all message
system.ruby.delayHist                    |    78144158     99.98%     99.98% |       14171      0.02%    100.00% |         130      0.00%    100.00% |          34      0.00%    100.00% |          37      0.00%    100.00% |           4      0.00%    100.00% |           0      0.00%    100.00% |           0      0.00%    100.00% |           0      0.00%    100.00% |           1      0.00%    100.00% # delay histogram for all message
system.ruby.delayHist::total                 78158535                       # delay histogram for all message
system.ruby.outstanding_req_hist::bucket_size            1                      
system.ruby.outstanding_req_hist::max_bucket            9                      
system.ruby.outstanding_req_hist::samples   5914071886                      
system.ruby.outstanding_req_hist::mean       1.000199                      
system.ruby.outstanding_req_hist::gmean      1.000138                      
system.ruby.outstanding_req_hist::stdev      0.014122                      
system.ruby.outstanding_req_hist         |           0      0.00%      0.00% |  5912892174     99.98%     99.98% |     1179712      0.02%    100.00% |           0      0.00%    100.00% |           0      0.00%    100.00% |           0      0.00%    100.00% |           0      0.00%    100.00% |           0      0.00%    100.00% |           0      0.00%    100.00% |           0      0.00%    100.00%
system.ruby.outstanding_req_hist::total    5914071886                      
system.ruby.latency_hist::bucket_size              32                      
system.ruby.latency_hist::max_bucket              319                      
system.ruby.latency_hist::samples          5914071886                      
system.ruby.latency_hist::mean               1.103131                      
system.ruby.latency_hist::gmean              1.007355                      
system.ruby.latency_hist::stdev              2.677883                      
system.ruby.latency_hist                 |  5907156870     99.88%     99.88% |     1078170      0.02%     99.90% |     5784800      0.10%    100.00% |       51931      0.00%    100.00% |          99      0.00%    100.00% |           7      0.00%    100.00% |           8      0.00%    100.00% |           1      0.00%    100.00% |           0      0.00%    100.00% |           0      0.00%    100.00%
system.ruby.latency_hist::total            5914071886                      
system.ruby.hit_latency_hist::bucket_size           32                      
system.ruby.hit_latency_hist::max_bucket          319                      
system.ruby.hit_latency_hist::samples      5914071886                      
system.ruby.hit_latency_hist::mean           1.103131                      
system.ruby.hit_latency_hist::gmean          1.007355                      
system.ruby.hit_latency_hist::stdev          2.677883                      
system.ruby.hit_latency_hist             |  5907156870     99.88%     99.88% |     1078170      0.02%     99.90% |     5784800      0.10%    100.00% |       51931      0.00%    100.00% |          99      0.00%    100.00% |           7      0.00%    100.00% |           8      0.00%    100.00% |           1      0.00%    100.00% |           0      0.00%    100.00% |           0      0.00%    100.00%
system.ruby.hit_latency_hist::total        5914071886                      
system.ruby.l0_cntrl0.Dcache.demand_hits   1373936383                       # Number of cache demand hits
system.ruby.l0_cntrl0.Dcache.demand_misses      4348579                       # Number of cache demand misses
system.ruby.l0_cntrl0.Dcache.demand_accesses   1378284962                       # Number of cache demand accesses
system.ruby.l0_cntrl0.Icache.demand_hits   4123220391                       # Number of cache demand hits
system.ruby.l0_cntrl0.Icache.demand_misses         9633                       # Number of cache demand misses
system.ruby.l0_cntrl0.Icache.demand_accesses   4123230024                       # Number of cache demand accesses
system.ruby.l0_cntrl0.Zcache.demand_hits    244163939                       # Number of cache demand hits
system.ruby.l0_cntrl0.Zcache.demand_misses      2751179                       # Number of cache demand misses
system.ruby.l0_cntrl0.Zcache.demand_accesses    246915118                       # Number of cache demand accesses
system.ruby.l0_cntrl1.Dcache.demand_hits     26833173                       # Number of cache demand hits
system.ruby.l0_cntrl1.Dcache.demand_misses      1800362                       # Number of cache demand misses
system.ruby.l0_cntrl1.Dcache.demand_accesses     28633535                       # Number of cache demand accesses
system.ruby.l0_cntrl1.Icache.demand_hits     74503573                       # Number of cache demand hits
system.ruby.l0_cntrl1.Icache.demand_misses         2117                       # Number of cache demand misses
system.ruby.l0_cntrl1.Icache.demand_accesses     74505690                       # Number of cache demand accesses
system.ruby.l0_cntrl1.Zcache.demand_hits       145851                       # Number of cache demand hits
system.ruby.l0_cntrl1.Zcache.demand_misses        11573                       # Number of cache demand misses
system.ruby.l0_cntrl1.Zcache.demand_accesses       157424                       # Number of cache demand accesses
system.ruby.l0_cntrl2.Dcache.demand_hits     26833282                       # Number of cache demand hits
system.ruby.l0_cntrl2.Dcache.demand_misses      1800253                       # Number of cache demand misses
system.ruby.l0_cntrl2.Dcache.demand_accesses     28633535                       # Number of cache demand accesses
system.ruby.l0_cntrl2.Icache.demand_hits     74503672                       # Number of cache demand hits
system.ruby.l0_cntrl2.Icache.demand_misses         2018                       # Number of cache demand misses
system.ruby.l0_cntrl2.Icache.demand_accesses     74505690                       # Number of cache demand accesses
system.ruby.l0_cntrl2.Zcache.demand_hits       147299                       # Number of cache demand hits
system.ruby.l0_cntrl2.Zcache.demand_misses        11731                       # Number of cache demand misses
system.ruby.l0_cntrl2.Zcache.demand_accesses       159030                       # Number of cache demand accesses
system.ruby.l0_cntrl3.Dcache.demand_hits     26824909                       # Number of cache demand hits
system.ruby.l0_cntrl3.Dcache.demand_misses      1808626                       # Number of cache demand misses
system.ruby.l0_cntrl3.Dcache.demand_accesses     28633535                       # Number of cache demand accesses
system.ruby.l0_cntrl3.Icache.demand_hits     74503643                       # Number of cache demand hits
system.ruby.l0_cntrl3.Icache.demand_misses         2047                       # Number of cache demand misses
system.ruby.l0_cntrl3.Icache.demand_accesses     74505690                       # Number of cache demand accesses
system.ruby.l0_cntrl3.Zcache.demand_hits       150519                       # Number of cache demand hits
system.ruby.l0_cntrl3.Zcache.demand_misses        12024                       # Number of cache demand misses
system.ruby.l0_cntrl3.Zcache.demand_accesses       162543                       # Number of cache demand accesses
system.ruby.l0_cntrl4.Dcache.demand_hits     26831996                       # Number of cache demand hits
system.ruby.l0_cntrl4.Dcache.demand_misses      1801539                       # Number of cache demand misses
system.ruby.l0_cntrl4.Dcache.demand_accesses     28633535                       # Number of cache demand accesses
system.ruby.l0_cntrl4.Icache.demand_hits     74503627                       # Number of cache demand hits
system.ruby.l0_cntrl4.Icache.demand_misses         2063                       # Number of cache demand misses
system.ruby.l0_cntrl4.Icache.demand_accesses     74505690                       # Number of cache demand accesses
system.ruby.l0_cntrl4.Zcache.demand_hits       149816                       # Number of cache demand hits
system.ruby.l0_cntrl4.Zcache.demand_misses        11993                       # Number of cache demand misses
system.ruby.l0_cntrl4.Zcache.demand_accesses       161809                       # Number of cache demand accesses
system.ruby.l1_cntrl0.cache.demand_hits           272                       # Number of cache demand hits
system.ruby.l1_cntrl0.cache.demand_misses      4357940                       # Number of cache demand misses
system.ruby.l1_cntrl0.cache.demand_accesses      4358212                       # Number of cache demand accesses
system.ruby.l1_cntrl0.zcache.demand_hits          144                       # Number of cache demand hits
system.ruby.l1_cntrl0.zcache.demand_misses      1058577                       # Number of cache demand misses
system.ruby.l1_cntrl0.zcache.demand_accesses      1058721                       # Number of cache demand accesses
system.ruby.l1_cntrl1.cache.demand_hits        152817                       # Number of cache demand hits
system.ruby.l1_cntrl1.cache.demand_misses      1649662                       # Number of cache demand misses
system.ruby.l1_cntrl1.cache.demand_accesses      1802479                       # Number of cache demand accesses
system.ruby.l1_cntrl1.zcache.demand_hits            0                       # Number of cache demand hits
system.ruby.l1_cntrl1.zcache.demand_misses            0                       # Number of cache demand misses
system.ruby.l1_cntrl1.zcache.demand_accesses            0                       # Number of cache demand accesses
system.ruby.l1_cntrl2.cache.demand_hits        155574                       # Number of cache demand hits
system.ruby.l1_cntrl2.cache.demand_misses      1646697                       # Number of cache demand misses
system.ruby.l1_cntrl2.cache.demand_accesses      1802271                       # Number of cache demand accesses
system.ruby.l1_cntrl2.zcache.demand_hits            0                       # Number of cache demand hits
system.ruby.l1_cntrl2.zcache.demand_misses            0                       # Number of cache demand misses
system.ruby.l1_cntrl2.zcache.demand_accesses            0                       # Number of cache demand accesses
system.ruby.l1_cntrl3.cache.demand_hits        160759                       # Number of cache demand hits
system.ruby.l1_cntrl3.cache.demand_misses      1649914                       # Number of cache demand misses
system.ruby.l1_cntrl3.cache.demand_accesses      1810673                       # Number of cache demand accesses
system.ruby.l1_cntrl3.zcache.demand_hits            0                       # Number of cache demand hits
system.ruby.l1_cntrl3.zcache.demand_misses            0                       # Number of cache demand misses
system.ruby.l1_cntrl3.zcache.demand_accesses            0                       # Number of cache demand accesses
system.ruby.l1_cntrl4.cache.demand_hits        152658                       # Number of cache demand hits
system.ruby.l1_cntrl4.cache.demand_misses      1650944                       # Number of cache demand misses
system.ruby.l1_cntrl4.cache.demand_accesses      1803602                       # Number of cache demand accesses
system.ruby.l1_cntrl4.zcache.demand_hits            0                       # Number of cache demand hits
system.ruby.l1_cntrl4.zcache.demand_misses            0                       # Number of cache demand misses
system.ruby.l1_cntrl4.zcache.demand_accesses            0                       # Number of cache demand accesses
system.ruby.l2_cntrl0.L2cache.demand_hits      4037618                       # Number of cache demand hits
system.ruby.l2_cntrl0.L2cache.demand_misses      6917539                       # Number of cache demand misses
system.ruby.l2_cntrl0.L2cache.demand_accesses     10955157                       # Number of cache demand accesses
system.ruby.l2_cntrl0.ZL2cache.demand_hits        26192                       # Number of cache demand hits
system.ruby.l2_cntrl0.ZL2cache.demand_misses       902346                       # Number of cache demand misses
system.ruby.l2_cntrl0.ZL2cache.demand_accesses       928538                       # Number of cache demand accesses
system.ruby.l2_cntrl0.fully_busy_cycles          1191                       # cycles for which number of transistions == max transitions
system.ruby.memctrl_clk_domain.clock             1500                       # Clock period in ticks
system.ruby.network.routers00.percent_links_utilized            0                      
system.ruby.network.routers01.percent_links_utilized            0                      
system.ruby.network.routers02.percent_links_utilized            0                      
system.ruby.network.routers03.percent_links_utilized            0                      
system.ruby.network.routers04.percent_links_utilized            0                      
system.ruby.network.routers05.percent_links_utilized     0.201398                      
system.ruby.network.routers05.msg_count.Control::0      4357940                      
system.ruby.network.routers05.msg_count.Request_Control::2       273872                      
system.ruby.network.routers05.msg_count.Response_Data::1      4357953                      
system.ruby.network.routers05.msg_count.Response_Control::1      4083457                      
system.ruby.network.routers05.msg_count.Response_Control::2      4357938                      
system.ruby.network.routers05.msg_count.Writeback_Data::0      4082808                      
system.ruby.network.routers05.msg_count.Writeback_Data::1       273655                      
system.ruby.network.routers05.msg_count.Writeback_Control::0          405                      
system.ruby.network.routers05.msg_bytes.Control::0     34863520                      
system.ruby.network.routers05.msg_bytes.Request_Control::2      2190976                      
system.ruby.network.routers05.msg_bytes.Response_Data::1    313772616                      
system.ruby.network.routers05.msg_bytes.Response_Control::1     32667656                      
system.ruby.network.routers05.msg_bytes.Response_Control::2     34863504                      
system.ruby.network.routers05.msg_bytes.Writeback_Data::0    293962176                      
system.ruby.network.routers05.msg_bytes.Writeback_Data::1     19703160                      
system.ruby.network.routers05.msg_bytes.Writeback_Control::0         3240                      
system.ruby.network.routers06.percent_links_utilized     0.048032                      
system.ruby.network.routers06.msg_count.Control::0      1649662                      
system.ruby.network.routers06.msg_count.Request_Control::2       484343                      
system.ruby.network.routers06.msg_count.Response_Data::1      1649965                      
system.ruby.network.routers06.msg_count.Response_Control::1      1515058                      
system.ruby.network.routers06.msg_count.Response_Control::2      1207608                      
system.ruby.network.routers06.msg_count.Writeback_Data::0        26494                      
system.ruby.network.routers06.msg_count.Writeback_Data::1        87376                      
system.ruby.network.routers06.msg_count.Writeback_Control::0      1091748                      
system.ruby.network.routers06.msg_bytes.Control::0     13197296                      
system.ruby.network.routers06.msg_bytes.Request_Control::2      3874744                      
system.ruby.network.routers06.msg_bytes.Response_Data::1    118797480                      
system.ruby.network.routers06.msg_bytes.Response_Control::1     12120464                      
system.ruby.network.routers06.msg_bytes.Response_Control::2      9660864                      
system.ruby.network.routers06.msg_bytes.Writeback_Data::0      1907568                      
system.ruby.network.routers06.msg_bytes.Writeback_Data::1      6291072                      
system.ruby.network.routers06.msg_bytes.Writeback_Control::0      8733984                      
system.ruby.network.routers07.percent_links_utilized     0.049430                      
system.ruby.network.routers07.msg_count.Control::0      1646697                      
system.ruby.network.routers07.msg_count.Request_Control::2       273804                      
system.ruby.network.routers07.msg_count.Response_Data::1      1647131                      
system.ruby.network.routers07.msg_count.Response_Control::1      1457576                      
system.ruby.network.routers07.msg_count.Response_Control::2      1470781                      
system.ruby.network.routers07.msg_count.Writeback_Data::0        26743                      
system.ruby.network.routers07.msg_count.Writeback_Data::1       138701                      
system.ruby.network.routers07.msg_count.Writeback_Control::0      1295947                      
system.ruby.network.routers07.msg_bytes.Control::0     13173576                      
system.ruby.network.routers07.msg_bytes.Request_Control::2      2190432                      
system.ruby.network.routers07.msg_bytes.Response_Data::1    118593432                      
system.ruby.network.routers07.msg_bytes.Response_Control::1     11660608                      
system.ruby.network.routers07.msg_bytes.Response_Control::2     11766248                      
system.ruby.network.routers07.msg_bytes.Writeback_Data::0      1925496                      
system.ruby.network.routers07.msg_bytes.Writeback_Data::1      9986472                      
system.ruby.network.routers07.msg_bytes.Writeback_Control::0     10367576                      
system.ruby.network.routers08.percent_links_utilized     0.047517                      
system.ruby.network.routers08.msg_count.Control::0      1649914                      
system.ruby.network.routers08.msg_count.Request_Control::2       546293                      
system.ruby.network.routers08.msg_count.Response_Data::1      1690252                      
system.ruby.network.routers08.msg_count.Response_Control::1      1588248                      
system.ruby.network.routers08.msg_count.Response_Control::2      1122578                      
system.ruby.network.routers08.msg_count.Writeback_Data::0        28521                      
system.ruby.network.routers08.msg_count.Writeback_Data::1        17946                      
system.ruby.network.routers08.msg_count.Writeback_Control::0      1051549                      
system.ruby.network.routers08.msg_bytes.Control::0     13199312                      
system.ruby.network.routers08.msg_bytes.Request_Control::2      4370344                      
system.ruby.network.routers08.msg_bytes.Response_Data::1    121698144                      
system.ruby.network.routers08.msg_bytes.Response_Control::1     12705984                      
system.ruby.network.routers08.msg_bytes.Response_Control::2      8980624                      
system.ruby.network.routers08.msg_bytes.Writeback_Data::0      2053512                      
system.ruby.network.routers08.msg_bytes.Writeback_Data::1      1292112                      
system.ruby.network.routers08.msg_bytes.Writeback_Control::0      8412392                      
system.ruby.network.routers09.percent_links_utilized     0.047084                      
system.ruby.network.routers09.msg_count.Control::0      1650944                      
system.ruby.network.routers09.msg_count.Request_Control::2       547248                      
system.ruby.network.routers09.msg_count.Response_Data::1      1653196                      
system.ruby.network.routers09.msg_count.Response_Control::1      1563574                      
system.ruby.network.routers09.msg_count.Response_Control::2      1119251                      
system.ruby.network.routers09.msg_count.Writeback_Data::0        26462                      
system.ruby.network.routers09.msg_count.Writeback_Data::1        40303                      
system.ruby.network.routers09.msg_count.Writeback_Control::0      1031292                      
system.ruby.network.routers09.msg_bytes.Control::0     13207552                      
system.ruby.network.routers09.msg_bytes.Request_Control::2      4377984                      
system.ruby.network.routers09.msg_bytes.Response_Data::1    119030112                      
system.ruby.network.routers09.msg_bytes.Response_Control::1     12508592                      
system.ruby.network.routers09.msg_bytes.Response_Control::2      8954008                      
system.ruby.network.routers09.msg_bytes.Writeback_Data::0      1905264                      
system.ruby.network.routers09.msg_bytes.Writeback_Data::1      2901816                      
system.ruby.network.routers09.msg_bytes.Writeback_Control::0      8250336                      
system.ruby.network.routers10.percent_links_utilized     0.593917                      
system.ruby.network.routers10.msg_count.Control::0     17010898                      
system.ruby.network.routers10.msg_count.Request_Control::2      1094431                      
system.ruby.network.routers10.msg_count.Response_Data::1     19634312                      
system.ruby.network.routers10.msg_count.Response_Control::1     18536291                      
system.ruby.network.routers10.msg_count.Response_Control::2      9278156                      
system.ruby.network.routers10.msg_count.Writeback_Data::0      4191028                      
system.ruby.network.routers10.msg_count.Writeback_Data::1       557981                      
system.ruby.network.routers10.msg_count.Writeback_Control::0      4470941                      
system.ruby.network.routers10.msg_bytes.Control::0    136087184                      
system.ruby.network.routers10.msg_bytes.Request_Control::2      8755448                      
system.ruby.network.routers10.msg_bytes.Response_Data::1   1413670464                      
system.ruby.network.routers10.msg_bytes.Response_Control::1    148290328                      
system.ruby.network.routers10.msg_bytes.Response_Control::2     74225248                      
system.ruby.network.routers10.msg_bytes.Writeback_Data::0    301754016                      
system.ruby.network.routers10.msg_bytes.Writeback_Data::1     40174632                      
system.ruby.network.routers10.msg_bytes.Writeback_Control::0     35767528                      
system.ruby.network.routers11.percent_links_utilized     0.220227                      
system.ruby.network.routers11.msg_count.Control::0      6055741                      
system.ruby.network.routers11.msg_count.Response_Data::1      9519301                      
system.ruby.network.routers11.msg_count.Response_Control::1      8328434                      
system.ruby.network.routers11.msg_bytes.Control::0     48445928                      
system.ruby.network.routers11.msg_bytes.Response_Data::1    685389672                      
system.ruby.network.routers11.msg_bytes.Response_Control::1     66627472                      
system.ruby.network.routers12.percent_links_utilized     0.102210                      
system.ruby.network.routers12.msg_count.Control::0     17010898                      
system.ruby.network.routers12.msg_count.Request_Control::2      2125560                      
system.ruby.network.routers12.msg_count.Response_Data::1     20496110                      
system.ruby.network.routers12.msg_count.Response_Control::1     18536319                      
system.ruby.network.routers12.msg_count.Response_Control::2      9278156                      
system.ruby.network.routers12.msg_count.Writeback_Data::0      4191028                      
system.ruby.network.routers12.msg_count.Writeback_Data::1       557981                      
system.ruby.network.routers12.msg_count.Writeback_Control::0      4470941                      
system.ruby.network.routers12.msg_bytes.Control::0    136087184                      
system.ruby.network.routers12.msg_bytes.Request_Control::2     17004480                      
system.ruby.network.routers12.msg_bytes.Response_Data::1   1475719920                      
system.ruby.network.routers12.msg_bytes.Response_Control::1    148290552                      
system.ruby.network.routers12.msg_bytes.Response_Control::2     74225248                      
system.ruby.network.routers12.msg_bytes.Writeback_Data::0    301754016                      
system.ruby.network.routers12.msg_bytes.Writeback_Data::1     40174632                      
system.ruby.network.routers12.msg_bytes.Writeback_Control::0     35767528                      
system.ruby.network.msg_count.Control        51032694                      
system.ruby.network.msg_count.Request_Control      5345551                      
system.ruby.network.msg_count.Response_Data     60648220                      
system.ruby.network.msg_count.Response_Control     83443425                      
system.ruby.network.msg_count.Writeback_Data     14247027                      
system.ruby.network.msg_count.Writeback_Control     13412823                      
system.ruby.network.msg_byte.Control        408261552                      
system.ruby.network.msg_byte.Request_Control     42764408                      
system.ruby.network.msg_byte.Response_Data   4366671840                      
system.ruby.network.msg_byte.Response_Control    667547400                      
system.ruby.network.msg_byte.Writeback_Data   1025785944                      
system.ruby.network.msg_byte.Writeback_Control    107302584                      
system.ruby.network.routers00.throttle0.link_utilization            0                      
system.ruby.network.routers00.throttle1.link_utilization            0                      
system.ruby.network.routers01.throttle0.link_utilization            0                      
system.ruby.network.routers01.throttle1.link_utilization            0                      
system.ruby.network.routers02.throttle0.link_utilization            0                      
system.ruby.network.routers02.throttle1.link_utilization            0                      
system.ruby.network.routers03.throttle0.link_utilization            0                      
system.ruby.network.routers03.throttle1.link_utilization            0                      
system.ruby.network.routers04.throttle0.link_utilization            0                      
system.ruby.network.routers04.throttle1.link_utilization            0                      
system.ruby.network.routers05.throttle0.link_utilization     0.191832                      
system.ruby.network.routers05.throttle0.msg_count.Request_Control::2       273872                      
system.ruby.network.routers05.throttle0.msg_count.Response_Data::1      4357919                      
system.ruby.network.routers05.throttle0.msg_count.Response_Control::1      4083258                      
system.ruby.network.routers05.throttle0.msg_bytes.Request_Control::2      2190976                      
system.ruby.network.routers05.throttle0.msg_bytes.Response_Data::1    313770168                      
system.ruby.network.routers05.throttle0.msg_bytes.Response_Control::1     32666064                      
system.ruby.network.routers05.throttle1.link_utilization     0.210965                      
system.ruby.network.routers05.throttle1.msg_count.Control::0      4357940                      
system.ruby.network.routers05.throttle1.msg_count.Response_Data::1           34                      
system.ruby.network.routers05.throttle1.msg_count.Response_Control::1          199                      
system.ruby.network.routers05.throttle1.msg_count.Response_Control::2      4357938                      
system.ruby.network.routers05.throttle1.msg_count.Writeback_Data::0      4082808                      
system.ruby.network.routers05.throttle1.msg_count.Writeback_Data::1       273655                      
system.ruby.network.routers05.throttle1.msg_count.Writeback_Control::0          405                      
system.ruby.network.routers05.throttle1.msg_bytes.Control::0     34863520                      
system.ruby.network.routers05.throttle1.msg_bytes.Response_Data::1         2448                      
system.ruby.network.routers05.throttle1.msg_bytes.Response_Control::1         1592                      
system.ruby.network.routers05.throttle1.msg_bytes.Response_Control::2     34863504                      
system.ruby.network.routers05.throttle1.msg_bytes.Writeback_Data::0    293962176                      
system.ruby.network.routers05.throttle1.msg_bytes.Writeback_Data::1     19703160                      
system.ruby.network.routers05.throttle1.msg_bytes.Writeback_Control::0         3240                      
system.ruby.network.routers06.throttle0.link_utilization     0.072411                      
system.ruby.network.routers06.throttle0.msg_count.Request_Control::2       484343                      
system.ruby.network.routers06.throttle0.msg_count.Response_Data::1      1649661                      
system.ruby.network.routers06.throttle0.msg_count.Response_Control::1      1118244                      
system.ruby.network.routers06.throttle0.msg_bytes.Request_Control::2      3874744                      
system.ruby.network.routers06.throttle0.msg_bytes.Response_Data::1    118775592                      
system.ruby.network.routers06.throttle0.msg_bytes.Response_Control::1      8945952                      
system.ruby.network.routers06.throttle1.link_utilization     0.023654                      
system.ruby.network.routers06.throttle1.msg_count.Control::0      1649662                      
system.ruby.network.routers06.throttle1.msg_count.Response_Data::1          304                      
system.ruby.network.routers06.throttle1.msg_count.Response_Control::1       396814                      
system.ruby.network.routers06.throttle1.msg_count.Response_Control::2      1207608                      
system.ruby.network.routers06.throttle1.msg_count.Writeback_Data::0        26494                      
system.ruby.network.routers06.throttle1.msg_count.Writeback_Data::1        87376                      
system.ruby.network.routers06.throttle1.msg_count.Writeback_Control::0      1091748                      
system.ruby.network.routers06.throttle1.msg_bytes.Control::0     13197296                      
system.ruby.network.routers06.throttle1.msg_bytes.Response_Data::1        21888                      
system.ruby.network.routers06.throttle1.msg_bytes.Response_Control::1      3174512                      
system.ruby.network.routers06.throttle1.msg_bytes.Response_Control::2      9660864                      
system.ruby.network.routers06.throttle1.msg_bytes.Writeback_Data::0      1907568                      
system.ruby.network.routers06.throttle1.msg_bytes.Writeback_Data::1      6291072                      
system.ruby.network.routers06.throttle1.msg_bytes.Writeback_Control::0      8733984                      
system.ruby.network.routers07.throttle0.link_utilization     0.072266                      
system.ruby.network.routers07.throttle0.msg_count.Request_Control::2       273804                      
system.ruby.network.routers07.throttle0.msg_count.Response_Data::1      1646696                      
system.ruby.network.routers07.throttle0.msg_count.Response_Control::1      1322692                      
system.ruby.network.routers07.throttle0.msg_bytes.Request_Control::2      2190432                      
system.ruby.network.routers07.throttle0.msg_bytes.Response_Data::1    118562112                      
system.ruby.network.routers07.throttle0.msg_bytes.Response_Control::1     10581536                      
system.ruby.network.routers07.throttle1.link_utilization     0.026593                      
system.ruby.network.routers07.throttle1.msg_count.Control::0      1646697                      
system.ruby.network.routers07.throttle1.msg_count.Response_Data::1          435                      
system.ruby.network.routers07.throttle1.msg_count.Response_Control::1       134884                      
system.ruby.network.routers07.throttle1.msg_count.Response_Control::2      1470781                      
system.ruby.network.routers07.throttle1.msg_count.Writeback_Data::0        26743                      
system.ruby.network.routers07.throttle1.msg_count.Writeback_Data::1       138701                      
system.ruby.network.routers07.throttle1.msg_count.Writeback_Control::0      1295947                      
system.ruby.network.routers07.throttle1.msg_bytes.Control::0     13173576                      
system.ruby.network.routers07.throttle1.msg_bytes.Response_Data::1        31320                      
system.ruby.network.routers07.throttle1.msg_bytes.Response_Control::1      1079072                      
system.ruby.network.routers07.throttle1.msg_bytes.Response_Control::2     11766248                      
system.ruby.network.routers07.throttle1.msg_bytes.Writeback_Data::0      1925496                      
system.ruby.network.routers07.throttle1.msg_bytes.Writeback_Data::1      9986472                      
system.ruby.network.routers07.throttle1.msg_bytes.Writeback_Control::0     10367576                      
system.ruby.network.routers08.throttle0.link_utilization     0.072525                      
system.ruby.network.routers08.throttle0.msg_count.Request_Control::2       546293                      
system.ruby.network.routers08.throttle0.msg_count.Response_Data::1      1649913                      
system.ruby.network.routers08.throttle0.msg_count.Response_Control::1      1080072                      
system.ruby.network.routers08.throttle0.msg_bytes.Request_Control::2      4370344                      
system.ruby.network.routers08.throttle0.msg_bytes.Response_Data::1    118793736                      
system.ruby.network.routers08.throttle0.msg_bytes.Response_Control::1      8640576                      
system.ruby.network.routers08.throttle1.link_utilization     0.022509                      
system.ruby.network.routers08.throttle1.msg_count.Control::0      1649914                      
system.ruby.network.routers08.throttle1.msg_count.Response_Data::1        40339                      
system.ruby.network.routers08.throttle1.msg_count.Response_Control::1       508176                      
system.ruby.network.routers08.throttle1.msg_count.Response_Control::2      1122578                      
system.ruby.network.routers08.throttle1.msg_count.Writeback_Data::0        28521                      
system.ruby.network.routers08.throttle1.msg_count.Writeback_Data::1        17946                      
system.ruby.network.routers08.throttle1.msg_count.Writeback_Control::0      1051549                      
system.ruby.network.routers08.throttle1.msg_bytes.Control::0     13199312                      
system.ruby.network.routers08.throttle1.msg_bytes.Response_Data::1      2904408                      
system.ruby.network.routers08.throttle1.msg_bytes.Response_Control::1      4065408                      
system.ruby.network.routers08.throttle1.msg_bytes.Response_Control::2      8980624                      
system.ruby.network.routers08.throttle1.msg_bytes.Writeback_Data::0      2053512                      
system.ruby.network.routers08.throttle1.msg_bytes.Writeback_Data::1      1292112                      
system.ruby.network.routers08.throttle1.msg_bytes.Writeback_Control::0      8412392                      
system.ruby.network.routers09.throttle0.link_utilization     0.072472                      
system.ruby.network.routers09.throttle0.msg_count.Request_Control::2       547248                      
system.ruby.network.routers09.throttle0.msg_count.Response_Data::1      1650943                      
system.ruby.network.routers09.throttle0.msg_count.Response_Control::1      1057756                      
system.ruby.network.routers09.throttle0.msg_bytes.Request_Control::2      4377984                      
system.ruby.network.routers09.throttle0.msg_bytes.Response_Data::1    118867896                      
system.ruby.network.routers09.throttle0.msg_bytes.Response_Control::1      8462048                      
system.ruby.network.routers09.throttle1.link_utilization     0.021695                      
system.ruby.network.routers09.throttle1.msg_count.Control::0      1650944                      
system.ruby.network.routers09.throttle1.msg_count.Response_Data::1         2253                      
system.ruby.network.routers09.throttle1.msg_count.Response_Control::1       505818                      
system.ruby.network.routers09.throttle1.msg_count.Response_Control::2      1119251                      
system.ruby.network.routers09.throttle1.msg_count.Writeback_Data::0        26462                      
system.ruby.network.routers09.throttle1.msg_count.Writeback_Data::1        40303                      
system.ruby.network.routers09.throttle1.msg_count.Writeback_Control::0      1031292                      
system.ruby.network.routers09.throttle1.msg_bytes.Control::0     13207552                      
system.ruby.network.routers09.throttle1.msg_bytes.Response_Data::1       162216                      
system.ruby.network.routers09.throttle1.msg_bytes.Response_Control::1      4046544                      
system.ruby.network.routers09.throttle1.msg_bytes.Response_Control::2      8954008                      
system.ruby.network.routers09.throttle1.msg_bytes.Writeback_Data::0      1905264                      
system.ruby.network.routers09.throttle1.msg_bytes.Writeback_Data::1      2901816                      
system.ruby.network.routers09.throttle1.msg_bytes.Writeback_Control::0      8250336                      
system.ruby.network.routers10.throttle0.link_utilization     0.570427                      
system.ruby.network.routers10.throttle0.msg_count.Control::0     10955157                      
system.ruby.network.routers10.throttle0.msg_count.Response_Data::1      6077418                      
system.ruby.network.routers10.throttle0.msg_count.Response_Control::1      7441860                      
system.ruby.network.routers10.throttle0.msg_count.Response_Control::2      9278156                      
system.ruby.network.routers10.throttle0.msg_count.Writeback_Data::0      4191028                      
system.ruby.network.routers10.throttle0.msg_count.Writeback_Data::1       557981                      
system.ruby.network.routers10.throttle0.msg_count.Writeback_Control::0      4470941                      
system.ruby.network.routers10.throttle0.msg_bytes.Control::0     87641256                      
system.ruby.network.routers10.throttle0.msg_bytes.Response_Data::1    437574096                      
system.ruby.network.routers10.throttle0.msg_bytes.Response_Control::1     59534880                      
system.ruby.network.routers10.throttle0.msg_bytes.Response_Control::2     74225248                      
system.ruby.network.routers10.throttle0.msg_bytes.Writeback_Data::0    301754016                      
system.ruby.network.routers10.throttle0.msg_bytes.Writeback_Data::1     40174632                      
[...]
system.ruby.L1Cache_Controller.S.L0_Invalidate_Own::total      1460150                      
system.ruby.L1Cache_Controller.S.L0_Invalidate_Else |           3      0.00%      0.00% |       31316     12.70%     12.70% |         396      0.16%     12.86% |      104777     42.49%     55.35% |      110124     44.65%    100.00%
system.ruby.L1Cache_Controller.S.L0_Invalidate_Else::total       246616                      
system.ruby.L1Cache_Controller.SS.Load   |           2      0.02%      0.02% |         143      1.69%      1.72% |         197      2.33%      4.05% |        6977     82.68%     86.73% |        1120     13.27%    100.00%
system.ruby.L1Cache_Controller.SS.Load::total         8439                      
system.ruby.L1Cache_Controller.SS.Inv    |          17      0.01%      0.01% |       31319     12.50%     12.51% |         408      0.16%     12.67% |      108623     43.36%     56.04% |      110120     43.96%    100.00%
system.ruby.L1Cache_Controller.SS.Inv::total       250487                      
system.ruby.L1Cache_Controller.SS.L1_Replacement |           1      0.00%      0.00% |      411851     28.03%     28.03% |      175951     11.97%     40.00% |      439912     29.94%     69.94% |      441795     30.06%    100.00%
system.ruby.L1Cache_Controller.SS.L1_Replacement::total      1469510                      
system.ruby.L1Cache_Controller.E.WriteBack |         631      0.01%      0.01% |     1177951     24.72%     24.74% |     1436421     30.15%     54.89% |     1078821     22.64%     77.53% |     1070648     22.47%    100.00%
system.ruby.L1Cache_Controller.E.WriteBack::total      4764472                      
system.ruby.L1Cache_Controller.E.L0_Invalidate_Own |       12177     11.56%     11.56% |       22681     21.54%     33.10% |       23235     22.06%     55.16% |       24823     23.57%     78.74% |       22394     21.26%    100.00%
system.ruby.L1Cache_Controller.E.L0_Invalidate_Own::total       105310                      
system.ruby.L1Cache_Controller.E.L0_Invalidate_Else |         213      1.03%      1.03% |         766      3.71%      4.74% |        5138     24.90%     29.65% |       12650     61.31%     90.95% |        1867      9.05%    100.00%
system.ruby.L1Cache_Controller.E.L0_Invalidate_Else::total        20634                      
system.ruby.L1Cache_Controller.EE.Load   |           6     22.22%     22.22% |           0      0.00%     22.22% |           1      3.70%     25.93% |           5     18.52%     44.44% |          15     55.56%    100.00%
system.ruby.L1Cache_Controller.EE.Load::total           27                      
system.ruby.L1Cache_Controller.EE.Inv    |         182      1.90%      1.90% |         617      6.45%      8.36% |        4913     51.39%     59.74% |        3106     32.49%     92.23% |         743      7.77%    100.00%
system.ruby.L1Cache_Controller.EE.Inv::total         9561                      
system.ruby.L1Cache_Controller.EE.L1_Replacement |        9642      9.53%      9.53% |       22257     22.00%     31.53% |       22841     22.57%     54.10% |       24443     24.16%     78.26% |       22001     21.74%    100.00%
system.ruby.L1Cache_Controller.EE.L1_Replacement::total       101184                      
system.ruby.L1Cache_Controller.EE.Fwd_GETX |           2    100.00%    100.00% |           0      0.00%    100.00% |           0      0.00%    100.00% |           0      0.00%    100.00% |           0      0.00%    100.00%
system.ruby.L1Cache_Controller.EE.Fwd_GETX::total            2                      
system.ruby.L1Cache_Controller.EE.Fwd_GETS |           4      0.04%      0.04% |         146      1.33%      1.36% |         205      1.86%      3.22% |        9536     86.61%     89.84% |        1119     10.16%    100.00%
system.ruby.L1Cache_Controller.EE.Fwd_GETS::total        11010                      
system.ruby.L1Cache_Controller.M.WriteBack |     4333080     87.63%     87.63% |      152327      3.08%     90.71% |      155033      3.14%     93.84% |      153317      3.10%     96.95% |      151045      3.05%    100.00%
system.ruby.L1Cache_Controller.M.WriteBack::total      4944802                      
system.ruby.L1Cache_Controller.M.L0_Invalidate_Own |        9830     40.09%     40.09% |        3728     15.21%     55.30% |        3385     13.81%     69.11% |        3592     14.65%     83.76% |        3982     16.24%    100.00%
system.ruby.L1Cache_Controller.M.L0_Invalidate_Own::total        24517                      
system.ruby.L1Cache_Controller.M.L0_Invalidate_Else |        1503     17.05%     17.05% |        1693     19.20%     36.25% |        2022     22.94%     59.19% |        1974     22.39%     81.58% |        1624     18.42%    100.00%
system.ruby.L1Cache_Controller.M.L0_Invalidate_Else::total         8816                      
system.ruby.L1Cache_Controller.MM.Load   |          97      0.02%      0.02% |      152674     24.89%     24.90% |      155376     25.33%     50.23% |      153777     25.07%     75.30% |      151522     24.70%    100.00%
system.ruby.L1Cache_Controller.MM.Load::total       613446                      
system.ruby.L1Cache_Controller.MM.Store  |         166     99.40%     99.40% |           0      0.00%     99.40% |           0      0.00%     99.40% |           0      0.00%     99.40% |           1      0.60%    100.00%
system.ruby.L1Cache_Controller.MM.Store::total          167                      
system.ruby.L1Cache_Controller.MM.Inv    |      273655     49.05%     49.05% |       87374     15.66%     64.71% |      138700     24.86%     89.57% |       17924      3.21%     92.78% |       40293      7.22%    100.00%
system.ruby.L1Cache_Controller.MM.Inv::total       557946                      
system.ruby.L1Cache_Controller.MM.L1_Replacement |     4073571     47.58%     47.58% |     1095985     12.80%     60.39% |     1299849     15.18%     75.57% |     1055627     12.33%     87.90% |     1035753     12.10%    100.00%
system.ruby.L1Cache_Controller.MM.L1_Replacement::total      8560785                      
system.ruby.L1Cache_Controller.MM.Fwd_GETX |           0      0.00%      0.00% |           2     22.22%     22.22% |           3     33.33%     55.56% |           3     33.33%     88.89% |           1     11.11%    100.00%
system.ruby.L1Cache_Controller.MM.Fwd_GETX::total            9                      
system.ruby.L1Cache_Controller.MM.Fwd_GETS |          12      0.11%      0.11% |           5      0.05%      0.16% |          11      0.10%      0.26% |       10632     99.67%     99.93% |           7      0.07%    100.00%
system.ruby.L1Cache_Controller.MM.Fwd_GETS::total        10667                      
system.ruby.L1Cache_Controller.IS.Inv    |           0      0.00%      0.00% |           4     44.44%     44.44% |           1     11.11%     55.56% |           2     22.22%     77.78% |           2     22.22%    100.00%
system.ruby.L1Cache_Controller.IS.Inv::total            9                      
system.ruby.L1Cache_Controller.IS.Data_Exclusive |       13661      0.28%      0.28% |     1201396     24.56%     24.84% |     1465283     29.96%     54.80% |     1116289     22.82%     77.62% |     1094894     22.38%    100.00%
system.ruby.L1Cache_Controller.IS.Data_Exclusive::total      4891523                      
system.ruby.L1Cache_Controller.IS.DataS_fromL1 |          27      0.12%      0.12% |        1054      4.86%      4.99% |         305      1.41%      6.39% |        1108      5.11%     11.51% |       19183     88.49%    100.00%
system.ruby.L1Cache_Controller.IS.DataS_fromL1::total        21677                      
system.ruby.L1Cache_Controller.IS.Data_all_Acks |           2      0.00%      0.00% |      442054     26.36%     26.36% |      175916     10.49%     36.85% |      527336     31.45%     68.30% |      531693     31.70%    100.00%
system.ruby.L1Cache_Controller.IS.Data_all_Acks::total      1677001                      
system.ruby.L1Cache_Controller.IM.Data_all_Acks |     4344229     99.53%     99.53% |        5153      0.12%     99.64% |        5191      0.12%     99.76% |        5178      0.12%     99.88% |        5171      0.12%    100.00%
system.ruby.L1Cache_Controller.IM.Data_all_Acks::total      4364922                      
system.ruby.L1Cache_Controller.SM.Ack    |          24     85.71%     85.71% |           1      3.57%     89.29% |           1      3.57%     92.86% |           1      3.57%     96.43% |           1      3.57%    100.00%
system.ruby.L1Cache_Controller.SM.Ack::total           28                      
system.ruby.L1Cache_Controller.SM.Ack_all |          21     84.00%     84.00% |           1      4.00%     88.00% |           1      4.00%     92.00% |           1      4.00%     96.00% |           1      4.00%    100.00%
system.ruby.L1Cache_Controller.SM.Ack_all::total           25                      
system.ruby.L1Cache_Controller.IS_I.Data_Exclusive |           0      0.00%      0.00% |           4     44.44%     44.44% |           1     11.11%     55.56% |           2     22.22%     77.78% |           2     22.22%    100.00%
system.ruby.L1Cache_Controller.IS_I.Data_Exclusive::total            9                      
system.ruby.L1Cache_Controller.M_I.Inv   |           0      0.00%      0.00% |           2      5.71%      5.71% |           1      2.86%      8.57% |          22     62.86%     71.43% |          10     28.57%    100.00%
system.ruby.L1Cache_Controller.M_I.Inv::total           35                      
system.ruby.L1Cache_Controller.M_I.WB_Ack |     4083213     47.14%     47.14% |     1118240     12.91%     60.05% |     1322689     15.27%     75.32% |     1080048     12.47%     87.79% |     1057744     12.21%    100.00%
system.ruby.L1Cache_Controller.M_I.WB_Ack::total      8661934                      
system.ruby.L1Cache_Controller.SINK_WB_ACK.WB_Ack |           0      0.00%      0.00% |           2      5.71%      5.71% |           1      2.86%      8.57% |          22     62.86%     71.43% |          10     28.57%    100.00%
system.ruby.L1Cache_Controller.SINK_WB_ACK.WB_Ack::total           35                      
system.ruby.L1Cache_Controller.S_IL0.L0_Invalidate_Own |           1      0.00%      0.00% |      411957     28.20%     28.20% |      175950     12.04%     40.24% |      431070     29.50%     69.74% |      442087     30.26%    100.00%
system.ruby.L1Cache_Controller.S_IL0.L0_Invalidate_Own::total      1461065                      
system.ruby.L1Cache_Controller.S_IL0.L0_Invalidate_Else |           3      0.00%      0.00% |       31325     12.68%     12.68% |         396      0.16%     12.84% |      105264     42.60%     55.43% |      110135     44.57%    100.00%
system.ruby.L1Cache_Controller.S_IL0.L0_Invalidate_Else::total       247123                      
system.ruby.L1Cache_Controller.S_IL0.L0_Ack |           4      0.00%      0.00% |      443163     25.97%     25.97% |      176346     10.33%     36.30% |      535344     31.37%     67.66% |      551909     32.34%    100.00%
system.ruby.L1Cache_Controller.S_IL0.L0_Ack::total      1706766                      
system.ruby.L1Cache_Controller.E_IL0.WriteBack |           0      0.00%      0.00% |           0      0.00%      0.00% |          18    100.00%    100.00% |           0      0.00%    100.00% |           0      0.00%    100.00%
system.ruby.L1Cache_Controller.E_IL0.WriteBack::total           18                      
system.ruby.L1Cache_Controller.E_IL0.L0_DataAck |        2554     61.66%     61.66% |         427     10.31%     71.97% |         395      9.54%     81.51% |         383      9.25%     90.75% |         383      9.25%    100.00%
system.ruby.L1Cache_Controller.E_IL0.L0_DataAck::total         4142                      
system.ruby.L1Cache_Controller.E_IL0.L0_Invalidate_Own |       12177     11.56%     11.56% |       22681     21.54%     33.10% |       23235     22.06%     55.16% |       24823     23.57%     78.74% |       22394     21.26%    100.00%
system.ruby.L1Cache_Controller.E_IL0.L0_Invalidate_Own::total       105310                      
system.ruby.L1Cache_Controller.E_IL0.L0_Invalidate_Else |         213      1.03%      1.03% |         766      3.71%      4.74% |        5138     24.90%     29.65% |       12650     61.31%     90.95% |        1867      9.05%    100.00%
system.ruby.L1Cache_Controller.E_IL0.L0_Invalidate_Else::total        20634                      
system.ruby.L1Cache_Controller.E_IL0.L0_Ack |        9836      8.08%      8.08% |       23020     18.90%     26.98% |       27960     22.96%     49.94% |       37090     30.46%     80.39% |       23878     19.61%    100.00%
system.ruby.L1Cache_Controller.E_IL0.L0_Ack::total       121784                      
system.ruby.L1Cache_Controller.M_IL0.L0_DataAck |       11282     36.12%     36.12% |        4986     15.96%     52.09% |        4942     15.82%     67.91% |        4997     16.00%     83.91% |        5025     16.09%    100.00%
system.ruby.L1Cache_Controller.M_IL0.L0_DataAck::total        31232                      
system.ruby.L1Cache_Controller.M_IL0.L0_Invalidate_Own |        9830     40.09%     40.09% |        3728     15.20%     55.30% |        3385     13.81%     69.10% |        3594     14.66%     83.76% |        3982     16.24%    100.00%
system.ruby.L1Cache_Controller.M_IL0.L0_Invalidate_Own::total        24519                      
system.ruby.L1Cache_Controller.M_IL0.L0_Invalidate_Else |        1503     17.05%     17.05% |        1693     19.20%     36.25% |        2022     22.94%     59.19% |        1974     22.39%     81.58% |        1624     18.42%    100.00%
system.ruby.L1Cache_Controller.M_IL0.L0_Invalidate_Else::total         8816                      
system.ruby.L1Cache_Controller.M_IL0.L0_Ack |          51      2.43%      2.43% |         435     20.70%     23.13% |         465     22.13%     45.26% |         569     27.08%     72.35% |         581     27.65%    100.00%
system.ruby.L1Cache_Controller.M_IL0.L0_Ack::total         2101                      
system.ruby.L1Cache_Controller.MM_IL0.Inv |           0      0.00%      0.00% |           0      0.00%      0.00% |          18    100.00%    100.00% |           0      0.00%    100.00% |           0      0.00%    100.00%
system.ruby.L1Cache_Controller.MM_IL0.Inv::total           18                      
system.ruby.L1Cache_Controller.MM_IL0.L0_Ack |           0      0.00%      0.00% |           0      0.00%      0.00% |          18    100.00%    100.00% |           0      0.00%    100.00% |           0      0.00%    100.00%
system.ruby.L1Cache_Controller.MM_IL0.L0_Ack::total           18                      
system.ruby.L2Cache_Controller.L1_GETS        6591244      0.00%      0.00%
system.ruby.L2Cache_Controller.L1_GETX        4364943      0.00%      0.00%
system.ruby.L2Cache_Controller.L1_UPGRADE           25      0.00%      0.00%
system.ruby.L2Cache_Controller.L1_PUTX        8661934      0.00%      0.00%
system.ruby.L2Cache_Controller.L1_PUTX_old           70      0.00%      0.00%
system.ruby.L2Cache_Controller.L2_Replacement      3182587      0.00%      0.00%
system.ruby.L2Cache_Controller.L2_Replacement_clean      2713411      0.00%      0.00%
system.ruby.L2Cache_Controller.Mem_Data       6055741      0.00%      0.00%
system.ruby.L2Cache_Controller.Mem_Ack        5895997      0.00%      0.00%
system.ruby.L2Cache_Controller.WB_Data         292047      0.00%      0.00%
system.ruby.L2Cache_Controller.WB_Data_clean       287611      0.00%      0.00%
system.ruby.L2Cache_Controller.Ack            1031126      0.00%      0.00%
system.ruby.L2Cache_Controller.Ack_all         514737      0.00%      0.00%
system.ruby.L2Cache_Controller.Unblock          21677      0.00%      0.00%
system.ruby.L2Cache_Controller.Exclusive_Unblock      9256479      0.00%      0.00%
system.ruby.L2Cache_Controller.NP.L1_GETS      1692670      0.00%      0.00%
system.ruby.L2Cache_Controller.NP.L1_GETX      4363071      0.00%      0.00%
system.ruby.L2Cache_Controller.NP.L1_PUTX_old           35      0.00%      0.00%
system.ruby.L2Cache_Controller.SS.L1_GETS       327340      0.00%      0.00%
system.ruby.L2Cache_Controller.SS.L1_UPGRADE           25      0.00%      0.00%
system.ruby.L2Cache_Controller.SS.L2_Replacement        10995      0.00%      0.00%
system.ruby.L2Cache_Controller.SS.L2_Replacement_clean       494181      0.00%      0.00%
system.ruby.L2Cache_Controller.M.L1_GETS      3708413      0.00%      0.00%
system.ruby.L2Cache_Controller.M.L1_GETX         1840      0.00%      0.00%
system.ruby.L2Cache_Controller.M.L2_Replacement      3171086      0.00%      0.00%
system.ruby.L2Cache_Controller.M.L2_Replacement_clean      1652193      0.00%      0.00%
system.ruby.L2Cache_Controller.MT.L1_GETS        21677      0.00%      0.00%
system.ruby.L2Cache_Controller.MT.L1_GETX           11      0.00%      0.00%
system.ruby.L2Cache_Controller.MT.L1_PUTX      8661934      0.00%      0.00%
system.ruby.L2Cache_Controller.MT.L2_Replacement          506      0.00%      0.00%
system.ruby.L2Cache_Controller.MT.L2_Replacement_clean       567036      0.00%      0.00%
system.ruby.L2Cache_Controller.M_I.L1_GETS          872      0.00%      0.00%
system.ruby.L2Cache_Controller.M_I.L1_GETX           15      0.00%      0.00%
system.ruby.L2Cache_Controller.M_I.Mem_Ack      5895997      0.00%      0.00%
system.ruby.L2Cache_Controller.MT_I.WB_Data           40      0.00%      0.00%
system.ruby.L2Cache_Controller.MT_I.WB_Data_clean           84      0.00%      0.00%
system.ruby.L2Cache_Controller.MT_I.Ack_all          382      0.00%      0.00%
system.ruby.L2Cache_Controller.MCT_I.L1_GETS            1      0.00%      0.00%
system.ruby.L2Cache_Controller.MCT_I.L1_PUTX_old           35      0.00%      0.00%
system.ruby.L2Cache_Controller.MCT_I.WB_Data       280973      0.00%      0.00%
system.ruby.L2Cache_Controller.MCT_I.WB_Data_clean       276884      0.00%      0.00%
system.ruby.L2Cache_Controller.MCT_I.Ack_all         9179      0.00%      0.00%
system.ruby.L2Cache_Controller.I_I.Ack        1006131      0.00%      0.00%
system.ruby.L2Cache_Controller.I_I.Ack_all       494181      0.00%      0.00%
system.ruby.L2Cache_Controller.S_I.L1_GETS           11      0.00%      0.00%
system.ruby.L2Cache_Controller.S_I.Ack          24995      0.00%      0.00%
system.ruby.L2Cache_Controller.S_I.Ack_all        10995      0.00%      0.00%
system.ruby.L2Cache_Controller.ISS.L1_GETS       509551      0.00%      0.00%
system.ruby.L2Cache_Controller.ISS.L2_Replacement_clean            1      0.00%      0.00%
system.ruby.L2Cache_Controller.ISS.Mem_Data      1183119      0.00%      0.00%
system.ruby.L2Cache_Controller.IS.L1_GETS       330559      0.00%      0.00%
system.ruby.L2Cache_Controller.IS.Mem_Data       509551      0.00%      0.00%
system.ruby.L2Cache_Controller.IM.L1_GETX            3      0.00%      0.00%
system.ruby.L2Cache_Controller.IM.Mem_Data      4363071      0.00%      0.00%
system.ruby.L2Cache_Controller.SS_MB.Exclusive_Unblock           25      0.00%      0.00%
system.ruby.L2Cache_Controller.MT_MB.L1_GETS           87      0.00%      0.00%
system.ruby.L2Cache_Controller.MT_MB.L1_GETX            3      0.00%      0.00%
system.ruby.L2Cache_Controller.MT_MB.Exclusive_Unblock      9256454      0.00%      0.00%
system.ruby.L2Cache_Controller.MT_IIB.L1_GETS           63      0.00%      0.00%
system.ruby.L2Cache_Controller.MT_IIB.WB_Data        10845      0.00%      0.00%
system.ruby.L2Cache_Controller.MT_IIB.WB_Data_clean        10471      0.00%      0.00%
system.ruby.L2Cache_Controller.MT_IIB.Unblock          361      0.00%      0.00%
system.ruby.L2Cache_Controller.MT_IB.WB_Data          189      0.00%      0.00%
system.ruby.L2Cache_Controller.MT_IB.WB_Data_clean          172      0.00%      0.00%
system.ruby.L2Cache_Controller.MT_SB.Unblock        21316      0.00%      0.00%

---------- End Simulation Statistics   ----------
