
---------- Begin Simulation Statistics ----------
sim_seconds                                  3.079035                       # Number of seconds simulated
sim_ticks                                3079034785000                       # Number of ticks simulated
final_tick                               3079034785000                       # Number of ticks from beginning of simulation (restored from checkpoints and never reset)
sim_freq                                 1000000000000                       # Frequency of simulated ticks
host_inst_rate                                 141552                       # Simulator instruction rate (inst/s)
host_op_rate                                   392506                       # Simulator op (including micro ops) rate (op/s)
host_tick_rate                              233062535                       # Simulator tick rate (ticks/s)
host_mem_usage                                1537336                       # Number of bytes of host memory used
host_seconds                                 13211.20                       # Real time elapsed on the host
sim_insts                                  1870066339                       # Number of instructions simulated
sim_ops                                    5185473973                       # Number of ops (including micro ops) simulated
system.voltage_domain.voltage                       1                       # Voltage in Volts
system.clk_domain.clock                          1000                       # Clock period in ticks
system.mem_ctrls.bytes_read::ruby.dir_cntrl0    245907520                       # Number of bytes read from this memory
system.mem_ctrls.bytes_read::total          245907520                       # Number of bytes read from this memory
system.mem_ctrls.bytes_written::ruby.dir_cntrl0    164680832                       # Number of bytes written to this memory
system.mem_ctrls.bytes_written::total       164680832                       # Number of bytes written to this memory
system.mem_ctrls.num_reads::ruby.dir_cntrl0      3842305                       # Number of read requests responded to by this memory
system.mem_ctrls.num_reads::total             3842305                       # Number of read requests responded to by this memory
system.mem_ctrls.num_writes::ruby.dir_cntrl0      2573138                       # Number of write requests responded to by this memory
system.mem_ctrls.num_writes::total            2573138                       # Number of write requests responded to by this memory
system.mem_ctrls.bw_read::ruby.dir_cntrl0     79865132                       # Total read bandwidth from this memory (bytes/s)
system.mem_ctrls.bw_read::total              79865132                       # Total read bandwidth from this memory (bytes/s)
system.mem_ctrls.bw_write::ruby.dir_cntrl0     53484564                       # Write bandwidth from this memory (bytes/s)
system.mem_ctrls.bw_write::total             53484564                       # Write bandwidth from this memory (bytes/s)
system.mem_ctrls.bw_total::ruby.dir_cntrl0    133349696                       # Total bandwidth to/from this memory (bytes/s)
system.mem_ctrls.bw_total::total            133349696                       # Total bandwidth to/from this memory (bytes/s)
system.mem_ctrls.readReqs                     3842305                       # Number of read requests accepted
system.mem_ctrls.writeReqs                    2573138                       # Number of write requests accepted
system.mem_ctrls.readBursts                   3842305                       # Number of DRAM read bursts, including those serviced by the write queue
system.mem_ctrls.writeBursts                  2573138                       # Number of DRAM write bursts, including those merged in the write queue
system.mem_ctrls.bytesReadDRAM              245842368                       # Total number of bytes read from DRAM
system.mem_ctrls.bytesReadWrQ                   65152                       # Total number of bytes read from write queue
system.mem_ctrls.bytesWritten               164679680                       # Total number of bytes written to DRAM
system.mem_ctrls.bytesReadSys               245907520                       # Total read bytes from the system interface side
system.mem_ctrls.bytesWrittenSys            164680832                       # Total written bytes from the system interface side
system.mem_ctrls.servicedByWrQ                   1018                       # Number of DRAM read bursts serviced by the write queue
system.mem_ctrls.mergedWrBursts                     0                       # Number of DRAM write bursts merged with an existing one
system.mem_ctrls.neitherReadNorWriteReqs            0                       # Number of requests that are neither read nor write
system.mem_ctrls.perBankRdBursts::0            239248                       # Per bank write bursts
system.mem_ctrls.perBankRdBursts::1            239426                       # Per bank write bursts
system.mem_ctrls.perBankRdBursts::2            243649                       # Per bank write bursts
system.mem_ctrls.perBankRdBursts::3            242280                       # Per bank write bursts
system.mem_ctrls.perBankRdBursts::4            241095                       # Per bank write bursts
system.mem_ctrls.perBankRdBursts::5            238216                       # Per bank write bursts
system.mem_ctrls.perBankRdBursts::6            239954                       # Per bank write bursts
system.mem_ctrls.perBankRdBursts::7            238596                       # Per bank write bursts
system.mem_ctrls.perBankRdBursts::8            239441                       # Per bank write bursts
system.mem_ctrls.perBankRdBursts::9            240887                       # Per bank write bursts
system.mem_ctrls.perBankRdBursts::10           241828                       # Per bank write bursts
system.mem_ctrls.perBankRdBursts::11           241241                       # Per bank write bursts
system.mem_ctrls.perBankRdBursts::12           238089                       # Per bank write bursts
system.mem_ctrls.perBankRdBursts::13           237209                       # Per bank write bursts
system.mem_ctrls.perBankRdBursts::14           242073                       # Per bank write bursts
system.mem_ctrls.perBankRdBursts::15           238055                       # Per bank write bursts
system.mem_ctrls.perBankWrBursts::0            161301                       # Per bank write bursts
system.mem_ctrls.perBankWrBursts::1            160858                       # Per bank write bursts
system.mem_ctrls.perBankWrBursts::2            160927                       # Per bank write bursts
system.mem_ctrls.perBankWrBursts::3            161066                       # Per bank write bursts
system.mem_ctrls.perBankWrBursts::4            160015                       # Per bank write bursts
system.mem_ctrls.perBankWrBursts::5            159792                       # Per bank write bursts
system.mem_ctrls.perBankWrBursts::6            161417                       # Per bank write bursts
system.mem_ctrls.perBankWrBursts::7            161089                       # Per bank write bursts
system.mem_ctrls.perBankWrBursts::8            159931                       # Per bank write bursts
system.mem_ctrls.perBankWrBursts::9            161926                       # Per bank write bursts
system.mem_ctrls.perBankWrBursts::10           161182                       # Per bank write bursts
system.mem_ctrls.perBankWrBursts::11           162048                       # Per bank write bursts
system.mem_ctrls.perBankWrBursts::12           160424                       # Per bank write bursts
system.mem_ctrls.perBankWrBursts::13           160013                       # Per bank write bursts
system.mem_ctrls.perBankWrBursts::14           160362                       # Per bank write bursts
system.mem_ctrls.perBankWrBursts::15           160769                       # Per bank write bursts
system.mem_ctrls.numRdRetry                         0                       # Number of times read queue was full causing retry
system.mem_ctrls.numWrRetry                         0                       # Number of times write queue was full causing retry
system.mem_ctrls.totGap                  3079034704500                       # Total gap between requests
system.mem_ctrls.readPktSize::0                     0                       # Read request sizes (log2)
system.mem_ctrls.readPktSize::1                     0                       # Read request sizes (log2)
system.mem_ctrls.readPktSize::2                     0                       # Read request sizes (log2)
system.mem_ctrls.readPktSize::3                     0                       # Read request sizes (log2)
system.mem_ctrls.readPktSize::4                     0                       # Read request sizes (log2)
system.mem_ctrls.readPktSize::5                     0                       # Read request sizes (log2)
system.mem_ctrls.readPktSize::6               3842305                       # Read request sizes (log2)
system.mem_ctrls.writePktSize::0                    0                       # Write request sizes (log2)
system.mem_ctrls.writePktSize::1                    0                       # Write request sizes (log2)
system.mem_ctrls.writePktSize::2                    0                       # Write request sizes (log2)
system.mem_ctrls.writePktSize::3                    0                       # Write request sizes (log2)
system.mem_ctrls.writePktSize::4                    0                       # Write request sizes (log2)
system.mem_ctrls.writePktSize::5                    0                       # Write request sizes (log2)
system.mem_ctrls.writePktSize::6              2573138                       # Write request sizes (log2)
system.mem_ctrls.rdQLenPdf::0                 1956625                       # What read queue length does an incoming req see
system.mem_ctrls.rdQLenPdf::1                  565081                       # What read queue length does an incoming req see
system.mem_ctrls.rdQLenPdf::2                  502148                       # What read queue length does an incoming req see
system.mem_ctrls.rdQLenPdf::3                  361564                       # What read queue length does an incoming req see
system.mem_ctrls.rdQLenPdf::4                  215229                       # What read queue length does an incoming req see
system.mem_ctrls.rdQLenPdf::5                  125995                       # What read queue length does an incoming req see
system.mem_ctrls.rdQLenPdf::6                   76352                       # What read queue length does an incoming req see
system.mem_ctrls.rdQLenPdf::7                   38289                       # What read queue length does an incoming req see
system.mem_ctrls.rdQLenPdf::8                       4                       # What read queue length does an incoming req see
system.mem_ctrls.rdQLenPdf::9                       0                       # What read queue length does an incoming req see
system.mem_ctrls.rdQLenPdf::10                      0                       # What read queue length does an incoming req see
system.mem_ctrls.rdQLenPdf::11                      0                       # What read queue length does an incoming req see
system.mem_ctrls.rdQLenPdf::12                      0                       # What read queue length does an incoming req see
system.mem_ctrls.rdQLenPdf::13                      0                       # What read queue length does an incoming req see
system.mem_ctrls.rdQLenPdf::14                      0                       # What read queue length does an incoming req see
system.mem_ctrls.rdQLenPdf::15                      0                       # What read queue length does an incoming req see
system.mem_ctrls.rdQLenPdf::16                      0                       # What read queue length does an incoming req see
system.mem_ctrls.rdQLenPdf::17                      0                       # What read queue length does an incoming req see
system.mem_ctrls.rdQLenPdf::18                      0                       # What read queue length does an incoming req see
system.mem_ctrls.rdQLenPdf::19                      0                       # What read queue length does an incoming req see
system.mem_ctrls.rdQLenPdf::20                      0                       # What read queue length does an incoming req see
system.mem_ctrls.rdQLenPdf::21                      0                       # What read queue length does an incoming req see
system.mem_ctrls.rdQLenPdf::22                      0                       # What read queue length does an incoming req see
system.mem_ctrls.rdQLenPdf::23                      0                       # What read queue length does an incoming req see
system.mem_ctrls.rdQLenPdf::24                      0                       # What read queue length does an incoming req see
system.mem_ctrls.rdQLenPdf::25                      0                       # What read queue length does an incoming req see
system.mem_ctrls.rdQLenPdf::26                      0                       # What read queue length does an incoming req see
system.mem_ctrls.rdQLenPdf::27                      0                       # What read queue length does an incoming req see
system.mem_ctrls.rdQLenPdf::28                      0                       # What read queue length does an incoming req see
system.mem_ctrls.rdQLenPdf::29                      0                       # What read queue length does an incoming req see
system.mem_ctrls.rdQLenPdf::30                      0                       # What read queue length does an incoming req see
system.mem_ctrls.rdQLenPdf::31                      0                       # What read queue length does an incoming req see
system.mem_ctrls.wrQLenPdf::0                       1                       # What write queue length does an incoming req see
system.mem_ctrls.wrQLenPdf::1                       1                       # What write queue length does an incoming req see
system.mem_ctrls.wrQLenPdf::2                       1                       # What write queue length does an incoming req see
system.mem_ctrls.wrQLenPdf::3                       1                       # What write queue length does an incoming req see
system.mem_ctrls.wrQLenPdf::4                       1                       # What write queue length does an incoming req see
system.mem_ctrls.wrQLenPdf::5                       1                       # What write queue length does an incoming req see
system.mem_ctrls.wrQLenPdf::6                       1                       # What write queue length does an incoming req see
system.mem_ctrls.wrQLenPdf::7                       1                       # What write queue length does an incoming req see
system.mem_ctrls.wrQLenPdf::8                       1                       # What write queue length does an incoming req see
system.mem_ctrls.wrQLenPdf::9                       1                       # What write queue length does an incoming req see
system.mem_ctrls.wrQLenPdf::10                      1                       # What write queue length does an incoming req see
system.mem_ctrls.wrQLenPdf::11                      1                       # What write queue length does an incoming req see
system.mem_ctrls.wrQLenPdf::12                      1                       # What write queue length does an incoming req see
system.mem_ctrls.wrQLenPdf::13                      1                       # What write queue length does an incoming req see
system.mem_ctrls.wrQLenPdf::14                      1                       # What write queue length does an incoming req see
system.mem_ctrls.wrQLenPdf::15                   3362                       # What write queue length does an incoming req see
system.mem_ctrls.wrQLenPdf::16                   3767                       # What write queue length does an incoming req see
system.mem_ctrls.wrQLenPdf::17                  82892                       # What write queue length does an incoming req see
system.mem_ctrls.wrQLenPdf::18                 102853                       # What write queue length does an incoming req see
system.mem_ctrls.wrQLenPdf::19                 125098                       # What write queue length does an incoming req see
system.mem_ctrls.wrQLenPdf::20                 145203                       # What write queue length does an incoming req see
system.mem_ctrls.wrQLenPdf::21                 160094                       # What write queue length does an incoming req see
system.mem_ctrls.wrQLenPdf::22                 168766                       # What write queue length does an incoming req see
system.mem_ctrls.wrQLenPdf::23                 173440                       # What write queue length does an incoming req see
system.mem_ctrls.wrQLenPdf::24                 175563                       # What write queue length does an incoming req see
system.mem_ctrls.wrQLenPdf::25                 176818                       # What write queue length does an incoming req see
system.mem_ctrls.wrQLenPdf::26                 176911                       # What write queue length does an incoming req see
system.mem_ctrls.wrQLenPdf::27                 175110                       # What write queue length does an incoming req see
system.mem_ctrls.wrQLenPdf::28                 172406                       # What write queue length does an incoming req see
system.mem_ctrls.wrQLenPdf::29                 172872                       # What write queue length does an incoming req see
system.mem_ctrls.wrQLenPdf::30                 176547                       # What write queue length does an incoming req see
system.mem_ctrls.wrQLenPdf::31                 180714                       # What write queue length does an incoming req see
system.mem_ctrls.wrQLenPdf::32                 180124                       # What write queue length does an incoming req see
system.mem_ctrls.wrQLenPdf::33                  11325                       # What write queue length does an incoming req see
system.mem_ctrls.wrQLenPdf::34                   4489                       # What write queue length does an incoming req see
system.mem_ctrls.wrQLenPdf::35                   2201                       # What write queue length does an incoming req see
system.mem_ctrls.wrQLenPdf::36                   1208                       # What write queue length does an incoming req see
system.mem_ctrls.wrQLenPdf::37                    599                       # What write queue length does an incoming req see
system.mem_ctrls.wrQLenPdf::38                    270                       # What write queue length does an incoming req see
system.mem_ctrls.wrQLenPdf::39                    137                       # What write queue length does an incoming req see
system.mem_ctrls.wrQLenPdf::40                     67                       # What write queue length does an incoming req see
system.mem_ctrls.wrQLenPdf::41                     40                       # What write queue length does an incoming req see
system.mem_ctrls.wrQLenPdf::42                     36                       # What write queue length does an incoming req see
system.mem_ctrls.wrQLenPdf::43                     32                       # What write queue length does an incoming req see
system.mem_ctrls.wrQLenPdf::44                     30                       # What write queue length does an incoming req see
system.mem_ctrls.wrQLenPdf::45                     23                       # What write queue length does an incoming req see
system.mem_ctrls.wrQLenPdf::46                     19                       # What write queue length does an incoming req see
system.mem_ctrls.wrQLenPdf::47                     21                       # What write queue length does an incoming req see
system.mem_ctrls.wrQLenPdf::48                     17                       # What write queue length does an incoming req see
system.mem_ctrls.wrQLenPdf::49                     15                       # What write queue length does an incoming req see
system.mem_ctrls.wrQLenPdf::50                      9                       # What write queue length does an incoming req see
system.mem_ctrls.wrQLenPdf::51                      9                       # What write queue length does an incoming req see
system.mem_ctrls.wrQLenPdf::52                      7                       # What write queue length does an incoming req see
system.mem_ctrls.wrQLenPdf::53                      9                       # What write queue length does an incoming req see
system.mem_ctrls.wrQLenPdf::54                     11                       # What write queue length does an incoming req see
system.mem_ctrls.wrQLenPdf::55                      5                       # What write queue length does an incoming req see
system.mem_ctrls.wrQLenPdf::56                      3                       # What write queue length does an incoming req see
system.mem_ctrls.wrQLenPdf::57                      1                       # What write queue length does an incoming req see
system.mem_ctrls.wrQLenPdf::58                      0                       # What write queue length does an incoming req see
system.mem_ctrls.wrQLenPdf::59                      0                       # What write queue length does an incoming req see
system.mem_ctrls.wrQLenPdf::60                      0                       # What write queue length does an incoming req see
system.mem_ctrls.wrQLenPdf::61                      0                       # What write queue length does an incoming req see
system.mem_ctrls.wrQLenPdf::62                      0                       # What write queue length does an incoming req see
system.mem_ctrls.wrQLenPdf::63                      0                       # What write queue length does an incoming req see
system.mem_ctrls.bytesPerActivate::samples      1769210                       # Bytes accessed per row activation
system.mem_ctrls.bytesPerActivate::mean    232.036563                       # Bytes accessed per row activation
system.mem_ctrls.bytesPerActivate::gmean   141.377161                       # Bytes accessed per row activation
system.mem_ctrls.bytesPerActivate::stdev   261.717031                       # Bytes accessed per row activation
system.mem_ctrls.bytesPerActivate::0-127       908829     51.37%     51.37% # Bytes accessed per row activation
system.mem_ctrls.bytesPerActivate::128-255       274566     15.52%     66.89% # Bytes accessed per row activation
system.mem_ctrls.bytesPerActivate::256-383       212207     11.99%     78.88% # Bytes accessed per row activation
system.mem_ctrls.bytesPerActivate::384-511       107993      6.10%     84.99% # Bytes accessed per row activation
system.mem_ctrls.bytesPerActivate::512-639        81785      4.62%     89.61% # Bytes accessed per row activation
system.mem_ctrls.bytesPerActivate::640-767        51223      2.90%     92.50% # Bytes accessed per row activation
system.mem_ctrls.bytesPerActivate::768-895        29045      1.64%     94.15% # Bytes accessed per row activation
system.mem_ctrls.bytesPerActivate::896-1023        18437      1.04%     95.19% # Bytes accessed per row activation
system.mem_ctrls.bytesPerActivate::1024-1151        85125      4.81%    100.00% # Bytes accessed per row activation
system.mem_ctrls.bytesPerActivate::total      1769210                       # Bytes accessed per row activation
system.mem_ctrls.rdPerTurnAround::samples       160268                       # Reads before turning the bus around for writes
system.mem_ctrls.rdPerTurnAround::mean      23.967779                       # Reads before turning the bus around for writes
system.mem_ctrls.rdPerTurnAround::gmean     20.256330                       # Reads before turning the bus around for writes
system.mem_ctrls.rdPerTurnAround::stdev    769.130841                       # Reads before turning the bus around for writes
system.mem_ctrls.rdPerTurnAround::0-16383       160267    100.00%    100.00% # Reads before turning the bus around for writes
system.mem_ctrls.rdPerTurnAround::294912-311295            1      0.00%    100.00% # Reads before turning the bus around for writes
system.mem_ctrls.rdPerTurnAround::total        160268                       # Reads before turning the bus around for writes
system.mem_ctrls.wrPerTurnAround::samples       160268                       # Writes before turning the bus around for reads
system.mem_ctrls.wrPerTurnAround::mean      16.055108                       # Writes before turning the bus around for reads
system.mem_ctrls.wrPerTurnAround::gmean     16.051349                       # Writes before turning the bus around for reads
system.mem_ctrls.wrPerTurnAround::stdev      0.366941                       # Writes before turning the bus around for reads
system.mem_ctrls.wrPerTurnAround::16           156243     97.49%     97.49% # Writes before turning the bus around for reads
system.mem_ctrls.wrPerTurnAround::17              263      0.16%     97.65% # Writes before turning the bus around for reads
system.mem_ctrls.wrPerTurnAround::18             3196      1.99%     99.65% # Writes before turning the bus around for reads
system.mem_ctrls.wrPerTurnAround::19              284      0.18%     99.82% # Writes before turning the bus around for reads
system.mem_ctrls.wrPerTurnAround::20              152      0.09%     99.92% # Writes before turning the bus around for reads
system.mem_ctrls.wrPerTurnAround::21               82      0.05%     99.97% # Writes before turning the bus around for reads
system.mem_ctrls.wrPerTurnAround::22               32      0.02%     99.99% # Writes before turning the bus around for reads
system.mem_ctrls.wrPerTurnAround::23               13      0.01%    100.00% # Writes before turning the bus around for reads
system.mem_ctrls.wrPerTurnAround::24                3      0.00%    100.00% # Writes before turning the bus around for reads
system.mem_ctrls.wrPerTurnAround::total        160268                       # Writes before turning the bus around for reads
system.mem_ctrls.totQLat                 128426035291                       # Total ticks spent queuing
system.mem_ctrls.totMemAccLat            200450166541                       # Total ticks spent from burst creation until serviced by the DRAM
system.mem_ctrls.totBusLat                19206435000                       # Total ticks spent in databus transfers
system.mem_ctrls.avgQLat                     33433.07                       # Average queueing delay per DRAM burst
system.mem_ctrls.avgBusLat                    5000.00                       # Average bus latency per DRAM burst
system.mem_ctrls.avgMemAccLat                52183.07                       # Average memory access latency per DRAM burst
system.mem_ctrls.avgRdBW                        79.84                       # Average DRAM read bandwidth in MiByte/s
system.mem_ctrls.avgWrBW                        53.48                       # Average achieved write bandwidth in MiByte/s
system.mem_ctrls.avgRdBWSys                     79.87                       # Average system read bandwidth in MiByte/s
system.mem_ctrls.avgWrBWSys                     53.48                       # Average system write bandwidth in MiByte/s
system.mem_ctrls.peakBW                      12800.00                       # Theoretical peak bandwidth in MiByte/s
system.mem_ctrls.busUtil                         1.04                       # Data bus utilization in percentage
system.mem_ctrls.busUtilRead                     0.62                       # Data bus utilization in percentage for reads
system.mem_ctrls.busUtilWrite                    0.42                       # Data bus utilization in percentage for writes
system.mem_ctrls.avgRdQLen                       1.06                       # Average read queue length when enqueuing
system.mem_ctrls.avgWrQLen                      22.71                       # Average write queue length when enqueuing
system.mem_ctrls.readRowHits                  2459909                       # Number of row buffer hits during reads
system.mem_ctrls.writeRowHits                 2185284                       # Number of row buffer hits during writes
system.mem_ctrls.readRowHitRate                 64.04                       # Row buffer hit rate for reads
system.mem_ctrls.writeRowHitRate                84.93                       # Row buffer hit rate for writes
system.mem_ctrls.avgGap                     479941.09                       # Average gap between requests
system.mem_ctrls.pageHitRate                    72.42                       # Row buffer hit rate, read and write combined
system.mem_ctrls_0.actEnergy               6702174360                       # Energy for activate commands per rank (pJ)
system.mem_ctrls_0.preEnergy               3656940375                       # Energy for precharge commands per rank (pJ)
system.mem_ctrls_0.readEnergy             14995211400                       # Energy for read commands per rank (pJ)
system.mem_ctrls_0.writeEnergy             8336293200                       # Energy for write commands per rank (pJ)
system.mem_ctrls_0.refreshEnergy         201107509200                       # Energy for refresh commands per rank (pJ)
system.mem_ctrls_0.actBackEnergy         576894294495                       # Energy for active background per rank (pJ)
system.mem_ctrls_0.preBackEnergy         1341372708000                       # Energy for precharge background per rank (pJ)
system.mem_ctrls_0.totalEnergy           2153065131030                       # Total energy per rank (pJ)
system.mem_ctrls_0.averagePower            699.266461                       # Core power per rank (mW)
system.mem_ctrls_0.memoryStateTime::IDLE 2227715345005                       # Time in different power states
system.mem_ctrls_0.memoryStateTime::REF  102815700000                       # Time in different power states
system.mem_ctrls_0.memoryStateTime::PRE_PDN            0                       # Time in different power states
system.mem_ctrls_0.memoryStateTime::ACT  748503558995                       # Time in different power states
system.mem_ctrls_0.memoryStateTime::ACT_PDN            0                       # Time in different power states
system.mem_ctrls_1.actEnergy               6673053240                       # Energy for activate commands per rank (pJ)
system.mem_ctrls_1.preEnergy               3641050875                       # Energy for precharge commands per rank (pJ)
system.mem_ctrls_1.readEnergy             14966749200                       # Energy for read commands per rank (pJ)
system.mem_ctrls_1.writeEnergy             8337524400                       # Energy for write commands per rank (pJ)
system.mem_ctrls_1.refreshEnergy         201107509200                       # Energy for refresh commands per rank (pJ)
system.mem_ctrls_1.actBackEnergy         575416832265                       # Energy for active background per rank (pJ)
system.mem_ctrls_1.preBackEnergy         1342668727500                       # Energy for precharge background per rank (pJ)
system.mem_ctrls_1.totalEnergy           2152811446680                       # Total energy per rank (pJ)
system.mem_ctrls_1.averagePower            699.184070                       # Core power per rank (mW)
system.mem_ctrls_1.memoryStateTime::IDLE 2229861418500                       # Time in different power states
system.mem_ctrls_1.memoryStateTime::REF  102815700000                       # Time in different power states
system.mem_ctrls_1.memoryStateTime::PRE_PDN            0                       # Time in different power states
system.mem_ctrls_1.memoryStateTime::ACT  746356786500                       # Time in different power states
system.mem_ctrls_1.memoryStateTime::ACT_PDN            0                       # Time in different power states
system.cpu_voltage_domain.voltage                   1                       # Voltage in Volts
system.cpu_clk_domain.clock                       500                       # Clock period in ticks
system.cpu0.apic_clk_domain.clock                8000                       # Clock period in ticks
system.cpu0.workload.num_syscalls                 352                       # Number of system calls
system.cpu0.numCycles                      6158069570                       # number of cpu cycles simulated
system.cpu0.numWorkItemsStarted                     0                       # number of work items this cpu started
system.cpu0.numWorkItemsCompleted                   0                       # number of work items this cpu completed
system.cpu0.committedInsts                 1702012523                       # Number of instructions committed
system.cpu0.committedOps                   4850611757                       # Number of ops (including micro ops) committed
system.cpu0.num_int_alu_accesses           4576711648                       # Number of integer alu accesses
system.cpu0.num_fp_alu_accesses             116281295                       # Number of float alu accesses
system.cpu0.num_func_calls                  163074956                       # number of times a function call or return occured
system.cpu0.num_conditional_control_insts    375095123                       # number of instructions that are conditional controls
system.cpu0.num_int_insts                  4576711648                       # number of integer instructions
system.cpu0.num_fp_insts                    116281295                       # number of float instructions
system.cpu0.num_int_register_reads         9643758061                       # number of times the integer registers were read
system.cpu0.num_int_register_writes        4557391646                       # number of times the integer registers were written
system.cpu0.num_fp_register_reads           186868631                       # number of times the floating registers were read
system.cpu0.num_fp_register_writes           91388910                       # number of times the floating registers were written
system.cpu0.num_cc_register_reads          3874167423                       # number of times the CC registers were read
system.cpu0.num_cc_register_writes         1452375547                       # number of times the CC registers were written
system.cpu0.num_mem_refs                    742065997                       # number of memory refs
system.cpu0.num_load_insts                  451433049                       # Number of load instructions
system.cpu0.num_store_insts                 290632948                       # Number of store instructions
system.cpu0.num_idle_cycles                  0.002000                       # Number of idle cycles
system.cpu0.num_busy_cycles              6158069569.998000                       # Number of busy cycles
system.cpu0.not_idle_fraction                1.000000                       # Percentage of non-idle cycles
system.cpu0.idle_fraction                    0.000000                       # Percentage of idle cycles
system.cpu0.Branches                        616348125                       # Number of branches fetched
system.cpu0.op_class::No_OpClass             94599470      1.95%      1.95% # Class of executed instruction
system.cpu0.op_class::IntAlu               3515260366     72.47%     74.42% # Class of executed instruction
system.cpu0.op_class::IntMult                     491      0.00%     74.42% # Class of executed instruction
system.cpu0.op_class::IntDiv                407297369      8.40%     82.82% # Class of executed instruction
system.cpu0.op_class::FloatAdd               91388064      1.88%     84.70% # Class of executed instruction
system.cpu0.op_class::FloatCmp                      0      0.00%     84.70% # Class of executed instruction
system.cpu0.op_class::FloatCvt                      0      0.00%     84.70% # Class of executed instruction
system.cpu0.op_class::FloatMult                     0      0.00%     84.70% # Class of executed instruction
system.cpu0.op_class::FloatDiv                      0      0.00%     84.70% # Class of executed instruction
system.cpu0.op_class::FloatSqrt                     0      0.00%     84.70% # Class of executed instruction
system.cpu0.op_class::SimdAdd                       0      0.00%     84.70% # Class of executed instruction
system.cpu0.op_class::SimdAddAcc                    0      0.00%     84.70% # Class of executed instruction
system.cpu0.op_class::SimdAlu                       0      0.00%     84.70% # Class of executed instruction
system.cpu0.op_class::SimdCmp                       0      0.00%     84.70% # Class of executed instruction
system.cpu0.op_class::SimdCvt                       0      0.00%     84.70% # Class of executed instruction
system.cpu0.op_class::SimdMisc                      0      0.00%     84.70% # Class of executed instruction
system.cpu0.op_class::SimdMult                      0      0.00%     84.70% # Class of executed instruction
system.cpu0.op_class::SimdMultAcc                   0      0.00%     84.70% # Class of executed instruction
system.cpu0.op_class::SimdShift                     0      0.00%     84.70% # Class of executed instruction
system.cpu0.op_class::SimdShiftAcc                  0      0.00%     84.70% # Class of executed instruction
system.cpu0.op_class::SimdSqrt                      0      0.00%     84.70% # Class of executed instruction
system.cpu0.op_class::SimdFloatAdd                  0      0.00%     84.70% # Class of executed instruction
system.cpu0.op_class::SimdFloatAlu                  0      0.00%     84.70% # Class of executed instruction
system.cpu0.op_class::SimdFloatCmp                  0      0.00%     84.70% # Class of executed instruction
system.cpu0.op_class::SimdFloatCvt                  0      0.00%     84.70% # Class of executed instruction
system.cpu0.op_class::SimdFloatDiv                  0      0.00%     84.70% # Class of executed instruction
system.cpu0.op_class::SimdFloatMisc                 0      0.00%     84.70% # Class of executed instruction
system.cpu0.op_class::SimdFloatMult                 0      0.00%     84.70% # Class of executed instruction
system.cpu0.op_class::SimdFloatMultAcc              0      0.00%     84.70% # Class of executed instruction
system.cpu0.op_class::SimdFloatSqrt                 0      0.00%     84.70% # Class of executed instruction
system.cpu0.op_class::MemRead               451433049      9.31%     94.01% # Class of executed instruction
system.cpu0.op_class::MemWrite              290632948      5.99%    100.00% # Class of executed instruction
system.cpu0.op_class::IprAccess                     0      0.00%    100.00% # Class of executed instruction
system.cpu0.op_class::InstPrefetch                  0      0.00%    100.00% # Class of executed instruction
system.cpu0.op_class::total                4850611757                       # Class of executed instruction
system.cpu1.apic_clk_domain.clock                8000                       # Clock period in ticks
system.cpu1.numCycles                      6157308602                       # number of cpu cycles simulated
system.cpu1.numWorkItemsStarted                     0                       # number of work items this cpu started
system.cpu1.numWorkItemsCompleted                   0                       # number of work items this cpu completed
system.cpu1.committedInsts                   21006727                       # Number of instructions committed
system.cpu1.committedOps                     41857777                       # Number of ops (including micro ops) committed
system.cpu1.num_int_alu_accesses             32737317                       # Number of integer alu accesses
system.cpu1.num_fp_alu_accesses              22882035                       # Number of float alu accesses
system.cpu1.num_func_calls                      40531                       # number of times a function call or return occured
system.cpu1.num_conditional_control_insts      2310570                       # number of instructions that are conditional controls
system.cpu1.num_int_insts                    32737317                       # number of integer instructions
system.cpu1.num_fp_insts                     22882035                       # number of float instructions
system.cpu1.num_int_register_reads           63226287                       # number of times the integer registers were read
system.cpu1.num_int_register_writes          16641624                       # number of times the integer registers were written
system.cpu1.num_fp_register_reads            31860914                       # number of times the floating registers were read
system.cpu1.num_fp_register_writes           18261133                       # number of times the floating registers were written
system.cpu1.num_cc_register_reads            13883681                       # number of times the CC registers were read
system.cpu1.num_cc_register_writes           13877327                       # number of times the CC registers were written
system.cpu1.num_mem_refs                     13842900                       # number of memory refs
system.cpu1.num_load_insts                    9201655                       # Number of load instructions
system.cpu1.num_store_insts                   4641245                       # Number of store instructions
system.cpu1.num_idle_cycles              5988253789.106309                       # Number of idle cycles
system.cpu1.num_busy_cycles              169054812.893691                       # Number of busy cycles
system.cpu1.not_idle_fraction                0.027456                       # Percentage of non-idle cycles
system.cpu1.idle_fraction                    0.972544                       # Percentage of idle cycles
system.cpu1.Branches                          2371388                       # Number of branches fetched
system.cpu1.op_class::No_OpClass                    2      0.00%      0.00% # Class of executed instruction
system.cpu1.op_class::IntAlu                 18836785     45.00%     45.00% # Class of executed instruction
system.cpu1.op_class::IntMult                   57612      0.14%     45.14% # Class of executed instruction
system.cpu1.op_class::IntDiv                       14      0.00%     45.14% # Class of executed instruction
system.cpu1.op_class::FloatAdd                9120464     21.79%     66.93% # Class of executed instruction
system.cpu1.op_class::FloatCmp                      0      0.00%     66.93% # Class of executed instruction
system.cpu1.op_class::FloatCvt                      0      0.00%     66.93% # Class of executed instruction
system.cpu1.op_class::FloatMult                     0      0.00%     66.93% # Class of executed instruction
system.cpu1.op_class::FloatDiv                      0      0.00%     66.93% # Class of executed instruction
system.cpu1.op_class::FloatSqrt                     0      0.00%     66.93% # Class of executed instruction
system.cpu1.op_class::SimdAdd                       0      0.00%     66.93% # Class of executed instruction
system.cpu1.op_class::SimdAddAcc                    0      0.00%     66.93% # Class of executed instruction
system.cpu1.op_class::SimdAlu                       0      0.00%     66.93% # Class of executed instruction
system.cpu1.op_class::SimdCmp                       0      0.00%     66.93% # Class of executed instruction
system.cpu1.op_class::SimdCvt                       0      0.00%     66.93% # Class of executed instruction
system.cpu1.op_class::SimdMisc                      0      0.00%     66.93% # Class of executed instruction
system.cpu1.op_class::SimdMult                      0      0.00%     66.93% # Class of executed instruction
system.cpu1.op_class::SimdMultAcc                   0      0.00%     66.93% # Class of executed instruction
system.cpu1.op_class::SimdShift                     0      0.00%     66.93% # Class of executed instruction
system.cpu1.op_class::SimdShiftAcc                  0      0.00%     66.93% # Class of executed instruction
system.cpu1.op_class::SimdSqrt                      0      0.00%     66.93% # Class of executed instruction
system.cpu1.op_class::SimdFloatAdd                  0      0.00%     66.93% # Class of executed instruction
system.cpu1.op_class::SimdFloatAlu                  0      0.00%     66.93% # Class of executed instruction
system.cpu1.op_class::SimdFloatCmp                  0      0.00%     66.93% # Class of executed instruction
system.cpu1.op_class::SimdFloatCvt                  0      0.00%     66.93% # Class of executed instruction
system.cpu1.op_class::SimdFloatDiv                  0      0.00%     66.93% # Class of executed instruction
system.cpu1.op_class::SimdFloatMisc                 0      0.00%     66.93% # Class of executed instruction
system.cpu1.op_class::SimdFloatMult                 0      0.00%     66.93% # Class of executed instruction
system.cpu1.op_class::SimdFloatMultAcc              0      0.00%     66.93% # Class of executed instruction
system.cpu1.op_class::SimdFloatSqrt                 0      0.00%     66.93% # Class of executed instruction
system.cpu1.op_class::MemRead                 9201655     21.98%     88.91% # Class of executed instruction
system.cpu1.op_class::MemWrite                4641245     11.09%    100.00% # Class of executed instruction
system.cpu1.op_class::IprAccess                     0      0.00%    100.00% # Class of executed instruction
system.cpu1.op_class::InstPrefetch                  0      0.00%    100.00% # Class of executed instruction
system.cpu1.op_class::total                  41857777                       # Class of executed instruction
system.cpu2.apic_clk_domain.clock                8000                       # Clock period in ticks
system.cpu2.numCycles                      6157419363                       # number of cpu cycles simulated
system.cpu2.numWorkItemsStarted                     0                       # number of work items this cpu started
system.cpu2.numWorkItemsCompleted                   0                       # number of work items this cpu completed
system.cpu2.committedInsts                   21006727                       # Number of instructions committed
system.cpu2.committedOps                     41857777                       # Number of ops (including micro ops) committed
system.cpu2.num_int_alu_accesses             32737317                       # Number of integer alu accesses
system.cpu2.num_fp_alu_accesses              22882035                       # Number of float alu accesses
system.cpu2.num_func_calls                      40531                       # number of times a function call or return occured
system.cpu2.num_conditional_control_insts      2310570                       # number of instructions that are conditional controls
system.cpu2.num_int_insts                    32737317                       # number of integer instructions
system.cpu2.num_fp_insts                     22882035                       # number of float instructions
system.cpu2.num_int_register_reads           63226287                       # number of times the integer registers were read
system.cpu2.num_int_register_writes          16641624                       # number of times the integer registers were written
system.cpu2.num_fp_register_reads            31860914                       # number of times the floating registers were read
system.cpu2.num_fp_register_writes           18261133                       # number of times the floating registers were written
system.cpu2.num_cc_register_reads            13883681                       # number of times the CC registers were read
system.cpu2.num_cc_register_writes           13877327                       # number of times the CC registers were written
system.cpu2.num_mem_refs                     13842900                       # number of memory refs
system.cpu2.num_load_insts                    9201655                       # Number of load instructions
system.cpu2.num_store_insts                   4641245                       # Number of store instructions
system.cpu2.num_idle_cycles              5988251502.673207                       # Number of idle cycles
system.cpu2.num_busy_cycles              169167860.326793                       # Number of busy cycles
system.cpu2.not_idle_fraction                0.027474                       # Percentage of non-idle cycles
system.cpu2.idle_fraction                    0.972526                       # Percentage of idle cycles
system.cpu2.Branches                          2371388                       # Number of branches fetched
system.cpu2.op_class::No_OpClass                    2      0.00%      0.00% # Class of executed instruction
system.cpu2.op_class::IntAlu                 18836785     45.00%     45.00% # Class of executed instruction
system.cpu2.op_class::IntMult                   57612      0.14%     45.14% # Class of executed instruction
system.cpu2.op_class::IntDiv                       14      0.00%     45.14% # Class of executed instruction
system.cpu2.op_class::FloatAdd                9120464     21.79%     66.93% # Class of executed instruction
system.cpu2.op_class::FloatCmp                      0      0.00%     66.93% # Class of executed instruction
system.cpu2.op_class::FloatCvt                      0      0.00%     66.93% # Class of executed instruction
system.cpu2.op_class::FloatMult                     0      0.00%     66.93% # Class of executed instruction
system.cpu2.op_class::FloatDiv                      0      0.00%     66.93% # Class of executed instruction
system.cpu2.op_class::FloatSqrt                     0      0.00%     66.93% # Class of executed instruction
system.cpu2.op_class::SimdAdd                       0      0.00%     66.93% # Class of executed instruction
system.cpu2.op_class::SimdAddAcc                    0      0.00%     66.93% # Class of executed instruction
system.cpu2.op_class::SimdAlu                       0      0.00%     66.93% # Class of executed instruction
system.cpu2.op_class::SimdCmp                       0      0.00%     66.93% # Class of executed instruction
system.cpu2.op_class::SimdCvt                       0      0.00%     66.93% # Class of executed instruction
system.cpu2.op_class::SimdMisc                      0      0.00%     66.93% # Class of executed instruction
system.cpu2.op_class::SimdMult                      0      0.00%     66.93% # Class of executed instruction
system.cpu2.op_class::SimdMultAcc                   0      0.00%     66.93% # Class of executed instruction
system.cpu2.op_class::SimdShift                     0      0.00%     66.93% # Class of executed instruction
system.cpu2.op_class::SimdShiftAcc                  0      0.00%     66.93% # Class of executed instruction
system.cpu2.op_class::SimdSqrt                      0      0.00%     66.93% # Class of executed instruction
system.cpu2.op_class::SimdFloatAdd                  0      0.00%     66.93% # Class of executed instruction
system.cpu2.op_class::SimdFloatAlu                  0      0.00%     66.93% # Class of executed instruction
system.cpu2.op_class::SimdFloatCmp                  0      0.00%     66.93% # Class of executed instruction
system.cpu2.op_class::SimdFloatCvt                  0      0.00%     66.93% # Class of executed instruction
system.cpu2.op_class::SimdFloatDiv                  0      0.00%     66.93% # Class of executed instruction
system.cpu2.op_class::SimdFloatMisc                 0      0.00%     66.93% # Class of executed instruction
system.cpu2.op_class::SimdFloatMult                 0      0.00%     66.93% # Class of executed instruction
system.cpu2.op_class::SimdFloatMultAcc              0      0.00%     66.93% # Class of executed instruction
system.cpu2.op_class::SimdFloatSqrt                 0      0.00%     66.93% # Class of executed instruction
system.cpu2.op_class::MemRead                 9201655     21.98%     88.91% # Class of executed instruction
system.cpu2.op_class::MemWrite                4641245     11.09%    100.00% # Class of executed instruction
system.cpu2.op_class::IprAccess                     0      0.00%    100.00% # Class of executed instruction
system.cpu2.op_class::InstPrefetch                  0      0.00%    100.00% # Class of executed instruction
system.cpu2.op_class::total                  41857777                       # Class of executed instruction
system.cpu3.apic_clk_domain.clock                8000                       # Clock period in ticks
system.cpu3.numCycles                      6157516978                       # number of cpu cycles simulated
system.cpu3.numWorkItemsStarted                     0                       # number of work items this cpu started
system.cpu3.numWorkItemsCompleted                   0                       # number of work items this cpu completed
system.cpu3.committedInsts                   21006727                       # Number of instructions committed
system.cpu3.committedOps                     41857777                       # Number of ops (including micro ops) committed
system.cpu3.num_int_alu_accesses             32737317                       # Number of integer alu accesses
system.cpu3.num_fp_alu_accesses              22882035                       # Number of float alu accesses
system.cpu3.num_func_calls                      40531                       # number of times a function call or return occured
system.cpu3.num_conditional_control_insts      2310570                       # number of instructions that are conditional controls
system.cpu3.num_int_insts                    32737317                       # number of integer instructions
system.cpu3.num_fp_insts                     22882035                       # number of float instructions
system.cpu3.num_int_register_reads           63226287                       # number of times the integer registers were read
system.cpu3.num_int_register_writes          16641624                       # number of times the integer registers were written
system.cpu3.num_fp_register_reads            31860914                       # number of times the floating registers were read
system.cpu3.num_fp_register_writes           18261133                       # number of times the floating registers were written
system.cpu3.num_cc_register_reads            13883681                       # number of times the CC registers were read
system.cpu3.num_cc_register_writes           13877327                       # number of times the CC registers were written
system.cpu3.num_mem_refs                     13842900                       # number of memory refs
system.cpu3.num_load_insts                    9201655                       # Number of load instructions
system.cpu3.num_store_insts                   4641245                       # Number of store instructions
system.cpu3.num_idle_cycles              5988249689.498079                       # Number of idle cycles
system.cpu3.num_busy_cycles              169267288.501921                       # Number of busy cycles
system.cpu3.not_idle_fraction                0.027490                       # Percentage of non-idle cycles
system.cpu3.idle_fraction                    0.972510                       # Percentage of idle cycles
system.cpu3.Branches                          2371388                       # Number of branches fetched
system.cpu3.op_class::No_OpClass                    2      0.00%      0.00% # Class of executed instruction
system.cpu3.op_class::IntAlu                 18836785     45.00%     45.00% # Class of executed instruction
system.cpu3.op_class::IntMult                   57612      0.14%     45.14% # Class of executed instruction
system.cpu3.op_class::IntDiv                       14      0.00%     45.14% # Class of executed instruction
system.cpu3.op_class::FloatAdd                9120464     21.79%     66.93% # Class of executed instruction
system.cpu3.op_class::FloatCmp                      0      0.00%     66.93% # Class of executed instruction
system.cpu3.op_class::FloatCvt                      0      0.00%     66.93% # Class of executed instruction
system.cpu3.op_class::FloatMult                     0      0.00%     66.93% # Class of executed instruction
system.cpu3.op_class::FloatDiv                      0      0.00%     66.93% # Class of executed instruction
system.cpu3.op_class::FloatSqrt                     0      0.00%     66.93% # Class of executed instruction
system.cpu3.op_class::SimdAdd                       0      0.00%     66.93% # Class of executed instruction
system.cpu3.op_class::SimdAddAcc                    0      0.00%     66.93% # Class of executed instruction
system.cpu3.op_class::SimdAlu                       0      0.00%     66.93% # Class of executed instruction
system.cpu3.op_class::SimdCmp                       0      0.00%     66.93% # Class of executed instruction
system.cpu3.op_class::SimdCvt                       0      0.00%     66.93% # Class of executed instruction
system.cpu3.op_class::SimdMisc                      0      0.00%     66.93% # Class of executed instruction
system.cpu3.op_class::SimdMult                      0      0.00%     66.93% # Class of executed instruction
system.cpu3.op_class::SimdMultAcc                   0      0.00%     66.93% # Class of executed instruction
system.cpu3.op_class::SimdShift                     0      0.00%     66.93% # Class of executed instruction
system.cpu3.op_class::SimdShiftAcc                  0      0.00%     66.93% # Class of executed instruction
system.cpu3.op_class::SimdSqrt                      0      0.00%     66.93% # Class of executed instruction
system.cpu3.op_class::SimdFloatAdd                  0      0.00%     66.93% # Class of executed instruction
system.cpu3.op_class::SimdFloatAlu                  0      0.00%     66.93% # Class of executed instruction
system.cpu3.op_class::SimdFloatCmp                  0      0.00%     66.93% # Class of executed instruction
system.cpu3.op_class::SimdFloatCvt                  0      0.00%     66.93% # Class of executed instruction
system.cpu3.op_class::SimdFloatDiv                  0      0.00%     66.93% # Class of executed instruction
system.cpu3.op_class::SimdFloatMisc                 0      0.00%     66.93% # Class of executed instruction
system.cpu3.op_class::SimdFloatMult                 0      0.00%     66.93% # Class of executed instruction
system.cpu3.op_class::SimdFloatMultAcc              0      0.00%     66.93% # Class of executed instruction
system.cpu3.op_class::SimdFloatSqrt                 0      0.00%     66.93% # Class of executed instruction
system.cpu3.op_class::MemRead                 9201655     21.98%     88.91% # Class of executed instruction
system.cpu3.op_class::MemWrite                4641245     11.09%    100.00% # Class of executed instruction
system.cpu3.op_class::IprAccess                     0      0.00%    100.00% # Class of executed instruction
system.cpu3.op_class::InstPrefetch                  0      0.00%    100.00% # Class of executed instruction
system.cpu3.op_class::total                  41857777                       # Class of executed instruction
system.cpu4.apic_clk_domain.clock                8000                       # Clock period in ticks
system.cpu4.numCycles                      6157264290                       # number of cpu cycles simulated
system.cpu4.numWorkItemsStarted                     0                       # number of work items this cpu started
system.cpu4.numWorkItemsCompleted                   0                       # number of work items this cpu completed
system.cpu4.committedInsts                   21006727                       # Number of instructions committed
system.cpu4.committedOps                     41857777                       # Number of ops (including micro ops) committed
system.cpu4.num_int_alu_accesses             32737317                       # Number of integer alu accesses
system.cpu4.num_fp_alu_accesses              22882035                       # Number of float alu accesses
system.cpu4.num_func_calls                      40531                       # number of times a function call or return occured
system.cpu4.num_conditional_control_insts      2310570                       # number of instructions that are conditional controls
system.cpu4.num_int_insts                    32737317                       # number of integer instructions
system.cpu4.num_fp_insts                     22882035                       # number of float instructions
system.cpu4.num_int_register_reads           63226287                       # number of times the integer registers were read
system.cpu4.num_int_register_writes          16641624                       # number of times the integer registers were written
system.cpu4.num_fp_register_reads            31860914                       # number of times the floating registers were read
system.cpu4.num_fp_register_writes           18261133                       # number of times the floating registers were written
system.cpu4.num_cc_register_reads            13883681                       # number of times the CC registers were read
system.cpu4.num_cc_register_writes           13877327                       # number of times the CC registers were written
system.cpu4.num_mem_refs                     13842900                       # number of memory refs
system.cpu4.num_load_insts                    9201655                       # Number of load instructions
system.cpu4.num_store_insts                   4641245                       # Number of store instructions
system.cpu4.num_idle_cycles              5988257409.625012                       # Number of idle cycles
system.cpu4.num_busy_cycles              169006880.374988                       # Number of busy cycles
system.cpu4.not_idle_fraction                0.027448                       # Percentage of non-idle cycles
system.cpu4.idle_fraction                    0.972552                       # Percentage of idle cycles
system.cpu4.Branches                          2371388                       # Number of branches fetched
system.cpu4.op_class::No_OpClass                    2      0.00%      0.00% # Class of executed instruction
system.cpu4.op_class::IntAlu                 18836785     45.00%     45.00% # Class of executed instruction
system.cpu4.op_class::IntMult                   57612      0.14%     45.14% # Class of executed instruction
system.cpu4.op_class::IntDiv                       14      0.00%     45.14% # Class of executed instruction
system.cpu4.op_class::FloatAdd                9120464     21.79%     66.93% # Class of executed instruction
system.cpu4.op_class::FloatCmp                      0      0.00%     66.93% # Class of executed instruction
system.cpu4.op_class::FloatCvt                      0      0.00%     66.93% # Class of executed instruction
system.cpu4.op_class::FloatMult                     0      0.00%     66.93% # Class of executed instruction
system.cpu4.op_class::FloatDiv                      0      0.00%     66.93% # Class of executed instruction
system.cpu4.op_class::FloatSqrt                     0      0.00%     66.93% # Class of executed instruction
system.cpu4.op_class::SimdAdd                       0      0.00%     66.93% # Class of executed instruction
system.cpu4.op_class::SimdAddAcc                    0      0.00%     66.93% # Class of executed instruction
system.cpu4.op_class::SimdAlu                       0      0.00%     66.93% # Class of executed instruction
system.cpu4.op_class::SimdCmp                       0      0.00%     66.93% # Class of executed instruction
system.cpu4.op_class::SimdCvt                       0      0.00%     66.93% # Class of executed instruction
system.cpu4.op_class::SimdMisc                      0      0.00%     66.93% # Class of executed instruction
system.cpu4.op_class::SimdMult                      0      0.00%     66.93% # Class of executed instruction
system.cpu4.op_class::SimdMultAcc                   0      0.00%     66.93% # Class of executed instruction
system.cpu4.op_class::SimdShift                     0      0.00%     66.93% # Class of executed instruction
system.cpu4.op_class::SimdShiftAcc                  0      0.00%     66.93% # Class of executed instruction
system.cpu4.op_class::SimdSqrt                      0      0.00%     66.93% # Class of executed instruction
system.cpu4.op_class::SimdFloatAdd                  0      0.00%     66.93% # Class of executed instruction
system.cpu4.op_class::SimdFloatAlu                  0      0.00%     66.93% # Class of executed instruction
system.cpu4.op_class::SimdFloatCmp                  0      0.00%     66.93% # Class of executed instruction
system.cpu4.op_class::SimdFloatCvt                  0      0.00%     66.93% # Class of executed instruction
system.cpu4.op_class::SimdFloatDiv                  0      0.00%     66.93% # Class of executed instruction
system.cpu4.op_class::SimdFloatMisc                 0      0.00%     66.93% # Class of executed instruction
system.cpu4.op_class::SimdFloatMult                 0      0.00%     66.93% # Class of executed instruction
system.cpu4.op_class::SimdFloatMultAcc              0      0.00%     66.93% # Class of executed instruction
system.cpu4.op_class::SimdFloatSqrt                 0      0.00%     66.93% # Class of executed instruction
system.cpu4.op_class::MemRead                 9201655     21.98%     88.91% # Class of executed instruction
system.cpu4.op_class::MemWrite                4641245     11.09%    100.00% # Class of executed instruction
system.cpu4.op_class::IprAccess                     0      0.00%    100.00% # Class of executed instruction
system.cpu4.op_class::InstPrefetch                  0      0.00%    100.00% # Class of executed instruction
system.cpu4.op_class::total                  41857777                       # Class of executed instruction
system.cpu5.apic_clk_domain.clock                8000                       # Clock period in ticks
system.cpu5.numCycles                      6157451390                       # number of cpu cycles simulated
system.cpu5.numWorkItemsStarted                     0                       # number of work items this cpu started
system.cpu5.numWorkItemsCompleted                   0                       # number of work items this cpu completed
system.cpu5.committedInsts                   21006727                       # Number of instructions committed
system.cpu5.committedOps                     41857777                       # Number of ops (including micro ops) committed
system.cpu5.num_int_alu_accesses             32737317                       # Number of integer alu accesses
system.cpu5.num_fp_alu_accesses              22882035                       # Number of float alu accesses
system.cpu5.num_func_calls                      40531                       # number of times a function call or return occured
system.cpu5.num_conditional_control_insts      2310570                       # number of instructions that are conditional controls
system.cpu5.num_int_insts                    32737317                       # number of integer instructions
system.cpu5.num_fp_insts                     22882035                       # number of float instructions
system.cpu5.num_int_register_reads           63226287                       # number of times the integer registers were read
system.cpu5.num_int_register_writes          16641624                       # number of times the integer registers were written
system.cpu5.num_fp_register_reads            31860914                       # number of times the floating registers were read
system.cpu5.num_fp_register_writes           18261133                       # number of times the floating registers were written
system.cpu5.num_cc_register_reads            13883681                       # number of times the CC registers were read
system.cpu5.num_cc_register_writes           13877327                       # number of times the CC registers were written
system.cpu5.num_mem_refs                     13842900                       # number of memory refs
system.cpu5.num_load_insts                    9201655                       # Number of load instructions
system.cpu5.num_store_insts                   4641245                       # Number of store instructions
system.cpu5.num_idle_cycles              5988253271.718445                       # Number of idle cycles
system.cpu5.num_busy_cycles              169198118.281555                       # Number of busy cycles
system.cpu5.not_idle_fraction                0.027479                       # Percentage of non-idle cycles
system.cpu5.idle_fraction                    0.972521                       # Percentage of idle cycles
system.cpu5.Branches                          2371388                       # Number of branches fetched
system.cpu5.op_class::No_OpClass                    2      0.00%      0.00% # Class of executed instruction
system.cpu5.op_class::IntAlu                 18836785     45.00%     45.00% # Class of executed instruction
system.cpu5.op_class::IntMult                   57612      0.14%     45.14% # Class of executed instruction
system.cpu5.op_class::IntDiv                       14      0.00%     45.14% # Class of executed instruction
system.cpu5.op_class::FloatAdd                9120464     21.79%     66.93% # Class of executed instruction
system.cpu5.op_class::FloatCmp                      0      0.00%     66.93% # Class of executed instruction
system.cpu5.op_class::FloatCvt                      0      0.00%     66.93% # Class of executed instruction
system.cpu5.op_class::FloatMult                     0      0.00%     66.93% # Class of executed instruction
system.cpu5.op_class::FloatDiv                      0      0.00%     66.93% # Class of executed instruction
system.cpu5.op_class::FloatSqrt                     0      0.00%     66.93% # Class of executed instruction
system.cpu5.op_class::SimdAdd                       0      0.00%     66.93% # Class of executed instruction
system.cpu5.op_class::SimdAddAcc                    0      0.00%     66.93% # Class of executed instruction
system.cpu5.op_class::SimdAlu                       0      0.00%     66.93% # Class of executed instruction
system.cpu5.op_class::SimdCmp                       0      0.00%     66.93% # Class of executed instruction
system.cpu5.op_class::SimdCvt                       0      0.00%     66.93% # Class of executed instruction
system.cpu5.op_class::SimdMisc                      0      0.00%     66.93% # Class of executed instruction
system.cpu5.op_class::SimdMult                      0      0.00%     66.93% # Class of executed instruction
system.cpu5.op_class::SimdMultAcc                   0      0.00%     66.93% # Class of executed instruction
system.cpu5.op_class::SimdShift                     0      0.00%     66.93% # Class of executed instruction
system.cpu5.op_class::SimdShiftAcc                  0      0.00%     66.93% # Class of executed instruction
system.cpu5.op_class::SimdSqrt                      0      0.00%     66.93% # Class of executed instruction
system.cpu5.op_class::SimdFloatAdd                  0      0.00%     66.93% # Class of executed instruction
system.cpu5.op_class::SimdFloatAlu                  0      0.00%     66.93% # Class of executed instruction
system.cpu5.op_class::SimdFloatCmp                  0      0.00%     66.93% # Class of executed instruction
system.cpu5.op_class::SimdFloatCvt                  0      0.00%     66.93% # Class of executed instruction
system.cpu5.op_class::SimdFloatDiv                  0      0.00%     66.93% # Class of executed instruction
system.cpu5.op_class::SimdFloatMisc                 0      0.00%     66.93% # Class of executed instruction
system.cpu5.op_class::SimdFloatMult                 0      0.00%     66.93% # Class of executed instruction
system.cpu5.op_class::SimdFloatMultAcc              0      0.00%     66.93% # Class of executed instruction
system.cpu5.op_class::SimdFloatSqrt                 0      0.00%     66.93% # Class of executed instruction
system.cpu5.op_class::MemRead                 9201655     21.98%     88.91% # Class of executed instruction
system.cpu5.op_class::MemWrite                4641245     11.09%    100.00% # Class of executed instruction
system.cpu5.op_class::IprAccess                     0      0.00%    100.00% # Class of executed instruction
system.cpu5.op_class::InstPrefetch                  0      0.00%    100.00% # Class of executed instruction
system.cpu5.op_class::total                  41857777                       # Class of executed instruction
system.cpu6.apic_clk_domain.clock                8000                       # Clock period in ticks
system.cpu6.numCycles                      6157577353                       # number of cpu cycles simulated
system.cpu6.numWorkItemsStarted                     0                       # number of work items this cpu started
system.cpu6.numWorkItemsCompleted                   0                       # number of work items this cpu completed
system.cpu6.committedInsts                   21006727                       # Number of instructions committed
system.cpu6.committedOps                     41857777                       # Number of ops (including micro ops) committed
system.cpu6.num_int_alu_accesses             32737317                       # Number of integer alu accesses
system.cpu6.num_fp_alu_accesses              22882035                       # Number of float alu accesses
system.cpu6.num_func_calls                      40531                       # number of times a function call or return occured
system.cpu6.num_conditional_control_insts      2310570                       # number of instructions that are conditional controls
system.cpu6.num_int_insts                    32737317                       # number of integer instructions
system.cpu6.num_fp_insts                     22882035                       # number of float instructions
system.cpu6.num_int_register_reads           63226287                       # number of times the integer registers were read
system.cpu6.num_int_register_writes          16641624                       # number of times the integer registers were written
system.cpu6.num_fp_register_reads            31860914                       # number of times the floating registers were read
system.cpu6.num_fp_register_writes           18261133                       # number of times the floating registers were written
system.cpu6.num_cc_register_reads            13883681                       # number of times the CC registers were read
system.cpu6.num_cc_register_writes           13877327                       # number of times the CC registers were written
system.cpu6.num_mem_refs                     13842900                       # number of memory refs
system.cpu6.num_load_insts                    9201655                       # Number of load instructions
system.cpu6.num_store_insts                   4641245                       # Number of store instructions
system.cpu6.num_idle_cycles              5988250795.422416                       # Number of idle cycles
system.cpu6.num_busy_cycles              169326557.577584                       # Number of busy cycles
system.cpu6.not_idle_fraction                0.027499                       # Percentage of non-idle cycles
system.cpu6.idle_fraction                    0.972501                       # Percentage of idle cycles
system.cpu6.Branches                          2371388                       # Number of branches fetched
system.cpu6.op_class::No_OpClass                    2      0.00%      0.00% # Class of executed instruction
system.cpu6.op_class::IntAlu                 18836785     45.00%     45.00% # Class of executed instruction
system.cpu6.op_class::IntMult                   57612      0.14%     45.14% # Class of executed instruction
system.cpu6.op_class::IntDiv                       14      0.00%     45.14% # Class of executed instruction
system.cpu6.op_class::FloatAdd                9120464     21.79%     66.93% # Class of executed instruction
system.cpu6.op_class::FloatCmp                      0      0.00%     66.93% # Class of executed instruction
system.cpu6.op_class::FloatCvt                      0      0.00%     66.93% # Class of executed instruction
system.cpu6.op_class::FloatMult                     0      0.00%     66.93% # Class of executed instruction
system.cpu6.op_class::FloatDiv                      0      0.00%     66.93% # Class of executed instruction
system.cpu6.op_class::FloatSqrt                     0      0.00%     66.93% # Class of executed instruction
system.cpu6.op_class::SimdAdd                       0      0.00%     66.93% # Class of executed instruction
system.cpu6.op_class::SimdAddAcc                    0      0.00%     66.93% # Class of executed instruction
system.cpu6.op_class::SimdAlu                       0      0.00%     66.93% # Class of executed instruction
system.cpu6.op_class::SimdCmp                       0      0.00%     66.93% # Class of executed instruction
system.cpu6.op_class::SimdCvt                       0      0.00%     66.93% # Class of executed instruction
system.cpu6.op_class::SimdMisc                      0      0.00%     66.93% # Class of executed instruction
system.cpu6.op_class::SimdMult                      0      0.00%     66.93% # Class of executed instruction
system.cpu6.op_class::SimdMultAcc                   0      0.00%     66.93% # Class of executed instruction
system.cpu6.op_class::SimdShift                     0      0.00%     66.93% # Class of executed instruction
system.cpu6.op_class::SimdShiftAcc                  0      0.00%     66.93% # Class of executed instruction
system.cpu6.op_class::SimdSqrt                      0      0.00%     66.93% # Class of executed instruction
system.cpu6.op_class::SimdFloatAdd                  0      0.00%     66.93% # Class of executed instruction
system.cpu6.op_class::SimdFloatAlu                  0      0.00%     66.93% # Class of executed instruction
system.cpu6.op_class::SimdFloatCmp                  0      0.00%     66.93% # Class of executed instruction
system.cpu6.op_class::SimdFloatCvt                  0      0.00%     66.93% # Class of executed instruction
system.cpu6.op_class::SimdFloatDiv                  0      0.00%     66.93% # Class of executed instruction
system.cpu6.op_class::SimdFloatMisc                 0      0.00%     66.93% # Class of executed instruction
system.cpu6.op_class::SimdFloatMult                 0      0.00%     66.93% # Class of executed instruction
system.cpu6.op_class::SimdFloatMultAcc              0      0.00%     66.93% # Class of executed instruction
system.cpu6.op_class::SimdFloatSqrt                 0      0.00%     66.93% # Class of executed instruction
system.cpu6.op_class::MemRead                 9201655     21.98%     88.91% # Class of executed instruction
system.cpu6.op_class::MemWrite                4641245     11.09%    100.00% # Class of executed instruction
system.cpu6.op_class::IprAccess                     0      0.00%    100.00% # Class of executed instruction
system.cpu6.op_class::InstPrefetch                  0      0.00%    100.00% # Class of executed instruction
system.cpu6.op_class::total                  41857777                       # Class of executed instruction
system.cpu7.apic_clk_domain.clock                8000                       # Clock period in ticks
system.cpu7.numCycles                      6157446534                       # number of cpu cycles simulated
system.cpu7.numWorkItemsStarted                     0                       # number of work items this cpu started
system.cpu7.numWorkItemsCompleted                   0                       # number of work items this cpu completed
[...]
system.ruby.L1Cache_Controller.MM.Fwd_GETS::total       983244                      
system.ruby.L1Cache_Controller.IS.Inv    |           0      0.00%      0.00% |        4537     15.34%     15.34% |        3490     11.80%     27.14% |        3659     12.37%     39.51% |        3121     10.55%     50.06% |        3451     11.67%     61.72% |        3717     12.57%     74.29% |        3565     12.05%     86.34% |        4041     13.66%    100.00%
system.ruby.L1Cache_Controller.IS.Inv::total        29581                      
system.ruby.L1Cache_Controller.IS.Data_Exclusive |       11656      0.25%      0.25% |      570886     12.42%     12.67% |      582452     12.67%     25.34% |      576107     12.53%     37.87% |      594539     12.93%     50.80% |      573003     12.46%     63.26% |      547693     11.91%     75.18% |      566647     12.32%     87.50% |      574583     12.50%    100.00%
system.ruby.L1Cache_Controller.IS.Data_Exclusive::total      4597566                      
system.ruby.L1Cache_Controller.IS.DataS_fromL1 |          82      0.01%      0.01% |      148513     15.10%     15.11% |      130024     13.22%     28.33% |      121335     12.34%     40.67% |       96854      9.85%     50.52% |      118922     12.09%     62.62% |      140155     14.25%     76.87% |      114864     11.68%     88.55% |      112580     11.45%    100.00%
system.ruby.L1Cache_Controller.IS.DataS_fromL1::total       983329                      
system.ruby.L1Cache_Controller.IS.Data_all_Acks |          12      0.00%      0.00% |       41705     10.59%     10.59% |       61981     15.74%     26.34% |       36443      9.26%     35.59% |       45706     11.61%     47.20% |       51754     13.14%     60.34% |       50913     12.93%     73.27% |       52570     13.35%     86.62% |       52665     13.38%    100.00%
system.ruby.L1Cache_Controller.IS.Data_all_Acks::total       393749                      
system.ruby.L1Cache_Controller.IM.Data   |           0      0.00%      0.00% |        6593     12.87%     12.87% |        7179     14.02%     26.89% |        5768     11.26%     38.15% |        5970     11.66%     49.81% |        7104     13.87%     63.68% |        7028     13.72%     77.40% |        6786     13.25%     90.65% |        4791      9.35%    100.00%
system.ruby.L1Cache_Controller.IM.Data::total        51219                      
system.ruby.L1Cache_Controller.IM.Data_all_Acks |     2289146     76.38%     76.38% |       71217      2.38%     78.75% |       79470      2.65%     81.40% |       62273      2.08%     83.48% |       77581      2.59%     86.07% |       87183      2.91%     88.98% |       96878      3.23%     92.21% |      105626      3.52%     95.74% |      127828      4.26%    100.00%
system.ruby.L1Cache_Controller.IM.Data_all_Acks::total      2997202                      
system.ruby.L1Cache_Controller.IM.Ack    |           0      0.00%      0.00% |        2720     14.37%     14.37% |        2504     13.23%     27.60% |        2232     11.79%     39.39% |        2277     12.03%     51.42% |        2463     13.01%     64.43% |        2603     13.75%     78.18% |        2256     11.92%     90.10% |        1875      9.90%    100.00%
system.ruby.L1Cache_Controller.IM.Ack::total        18930                      
system.ruby.L1Cache_Controller.SM.Inv    |           0      0.00%      0.00% |       39636      8.61%      8.61% |       48438     10.52%     19.14% |       37646      8.18%     27.32% |       50781     11.03%     38.35% |       56414     12.26%     50.61% |       63823     13.87%     64.47% |       72005     15.64%     80.12% |       91501     19.88%    100.00%
system.ruby.L1Cache_Controller.SM.Inv::total       460244                      
system.ruby.L1Cache_Controller.SM.Ack    |         105      0.01%      0.01% |      213467     15.88%     15.89% |      224967     16.74%     32.63% |      161740     12.03%     44.66% |      142384     10.59%     55.26% |      165596     12.32%     67.58% |      176264     13.11%     80.69% |      138999     10.34%     91.03% |      120501      8.97%    100.00%
system.ruby.L1Cache_Controller.SM.Ack::total      1344023                      
system.ruby.L1Cache_Controller.SM.Ack_all |          79      0.01%      0.01% |      156421     15.35%     15.36% |      150625     14.78%     30.13% |      126744     12.44%     42.57% |      103444     10.15%     52.72% |      125158     12.28%     65.00% |      141812     13.91%     78.91% |      113741     11.16%     90.07% |      101155      9.93%    100.00%
system.ruby.L1Cache_Controller.SM.Ack_all::total      1019179                      
system.ruby.L1Cache_Controller.IS_I.Data_all_Acks |           0      0.00%      0.00% |        4537     15.34%     15.34% |        3490     11.80%     27.14% |        3659     12.37%     39.51% |        3121     10.55%     50.06% |        3451     11.67%     61.72% |        3717     12.57%     74.29% |        3565     12.05%     86.34% |        4041     13.66%    100.00%
system.ruby.L1Cache_Controller.IS_I.Data_all_Acks::total        29581                      
system.ruby.L1Cache_Controller.M_I.Inv   |           0      0.00%      0.00% |           1     20.00%     20.00% |           0      0.00%     20.00% |           3     60.00%     80.00% |           0      0.00%     80.00% |           0      0.00%     80.00% |           1     20.00%    100.00% |           0      0.00%    100.00% |           0      0.00%    100.00%
system.ruby.L1Cache_Controller.M_I.Inv::total            5                      
system.ruby.L1Cache_Controller.M_I.Fwd_GETS |           0      0.00%      0.00% |           0      0.00%      0.00% |           0      0.00%      0.00% |           1     33.33%     33.33% |           0      0.00%     33.33% |           0      0.00%     33.33% |           2     66.67%    100.00% |           0      0.00%    100.00% |           0      0.00%    100.00%
system.ruby.L1Cache_Controller.M_I.Fwd_GETS::total            3                      
system.ruby.L1Cache_Controller.M_I.WB_Ack |     2295781     35.47%     35.47% |      489017      7.55%     43.02% |      480222      7.42%     50.44% |      516655      7.98%     58.42% |      562771      8.69%     67.12% |      520768      8.05%     75.16% |      524469      8.10%     83.26% |      523158      8.08%     91.35% |      560175      8.65%    100.00%
system.ruby.L1Cache_Controller.M_I.WB_Ack::total      6473016                      
system.ruby.L1Cache_Controller.SINK_WB_ACK.WB_Ack |           0      0.00%      0.00% |           1     12.50%     12.50% |           0      0.00%     12.50% |           4     50.00%     62.50% |           0      0.00%     62.50% |           0      0.00%     62.50% |           3     37.50%    100.00% |           0      0.00%    100.00% |           0      0.00%    100.00%
system.ruby.L1Cache_Controller.SINK_WB_ACK.WB_Ack::total            8                      
system.ruby.L1Cache_Controller.S_IL0.Store |           0      0.00%      0.00% |       26859     13.00%     13.00% |       27279     13.20%     26.19% |       20205      9.78%     35.97% |       21865     10.58%     46.55% |       25220     12.20%     58.75% |       26765     12.95%     71.70% |       27333     13.23%     84.93% |       31149     15.07%    100.00%
system.ruby.L1Cache_Controller.S_IL0.Store::total       206675                      
system.ruby.L1Cache_Controller.S_IL0.L0_Invalidate_Own |           8      0.11%      0.11% |         915     12.20%     12.30% |         909     12.12%     24.42% |         925     12.33%     36.75% |         950     12.66%     49.41% |         939     12.52%     61.93% |         945     12.60%     74.53% |         972     12.96%     87.48% |         939     12.52%    100.00%
system.ruby.L1Cache_Controller.S_IL0.L0_Invalidate_Own::total         7502                      
system.ruby.L1Cache_Controller.S_IL0.L0_Invalidate_Else |           3      0.00%      0.00% |       39787     12.76%     12.76% |       39668     12.72%     25.49% |       31616     10.14%     35.63% |       34169     10.96%     46.59% |       39592     12.70%     59.29% |       41898     13.44%     72.73% |       42188     13.53%     86.26% |       42840     13.74%    100.00%
system.ruby.L1Cache_Controller.S_IL0.L0_Invalidate_Else::total       311761                      
system.ruby.L1Cache_Controller.S_IL0.L0_Ack |          11      0.00%      0.00% |       40702     12.75%     12.75% |       40577     12.71%     25.46% |       32541     10.19%     35.65% |       35119     11.00%     46.65% |       40531     12.70%     59.35% |       42843     13.42%     72.77% |       43160     13.52%     86.29% |       43779     13.71%    100.00%
system.ruby.L1Cache_Controller.S_IL0.L0_Ack::total       319263                      
system.ruby.L1Cache_Controller.E_IL0.L0_DataAck |        1683      1.49%      1.49% |        9030      7.97%      9.46% |       14591     12.88%     22.33% |       13691     12.08%     34.42% |       23755     20.97%     55.39% |       13447     11.87%     67.25% |        8292      7.32%     74.57% |       13144     11.60%     86.17% |       15664     13.83%    100.00%
system.ruby.L1Cache_Controller.E_IL0.L0_DataAck::total       113297                      
system.ruby.L1Cache_Controller.E_IL0.L0_Invalidate_Own |        9385     12.26%     12.26% |        7577      9.90%     22.17% |        8565     11.19%     33.36% |        8543     11.16%     44.52% |        8806     11.51%     56.03% |        8776     11.47%     67.50% |        8254     10.79%     78.29% |        8423     11.01%     89.30% |        8191     10.70%    100.00%
system.ruby.L1Cache_Controller.E_IL0.L0_Invalidate_Own::total        76520                      
system.ruby.L1Cache_Controller.E_IL0.L0_Invalidate_Else |          96      0.12%      0.12% |        4416      5.74%      5.87% |       10218     13.29%     19.15% |       10365     13.48%     32.63% |       19003     24.71%     57.34% |        8834     11.49%     68.82% |        3882      5.05%     73.87% |        8832     11.48%     85.36% |       11263     14.64%    100.00%
system.ruby.L1Cache_Controller.E_IL0.L0_Invalidate_Else::total        76909                      
system.ruby.L1Cache_Controller.E_IL0.L0_Ack |        7798     19.43%     19.43% |        2963      7.38%     26.81% |        4192     10.45%     37.26% |        5217     13.00%     50.26% |        4054     10.10%     60.36% |        4163     10.37%     70.73% |        3844      9.58%     80.31% |        4111     10.24%     90.56% |        3790      9.44%    100.00%
system.ruby.L1Cache_Controller.E_IL0.L0_Ack::total        40132                      
system.ruby.L1Cache_Controller.M_IL0.WriteBack |           0      0.00%      0.00% |           0      0.00%      0.00% |           0      0.00%      0.00% |           0      0.00%      0.00% |           8     42.11%     42.11% |           8     42.11%     84.21% |           3     15.79%    100.00% |           0      0.00%    100.00% |           0      0.00%    100.00%
system.ruby.L1Cache_Controller.M_IL0.WriteBack::total           19                      
system.ruby.L1Cache_Controller.M_IL0.L0_DataAck |        2206      0.15%      0.15% |      190431     13.17%     13.32% |      219912     15.21%     28.53% |      147536     10.20%     38.73% |      150211     10.39%     49.12% |      190671     13.19%     62.30% |      188630     13.04%     75.35% |      181422     12.55%     87.89% |      175054     12.11%    100.00%
system.ruby.L1Cache_Controller.M_IL0.L0_DataAck::total      1446073                      
system.ruby.L1Cache_Controller.M_IL0.L0_Invalidate_Own |        1744     75.53%     75.53% |          69      2.99%     78.52% |          54      2.34%     80.86% |          73      3.16%     84.02% |          56      2.43%     86.44% |          36      1.56%     88.00% |          50      2.17%     90.17% |         165      7.15%     97.31% |          62      2.69%    100.00%
system.ruby.L1Cache_Controller.M_IL0.L0_Invalidate_Own::total         2309                      
system.ruby.L1Cache_Controller.M_IL0.L0_Invalidate_Else |         520      0.04%      0.04% |      190751     13.18%     13.22% |      220365     15.23%     28.44% |      147849     10.22%     38.66% |      150562     10.40%     49.06% |      191011     13.20%     62.26% |      188988     13.06%     75.32% |      181787     12.56%     87.88% |      175466     12.12%    100.00%
system.ruby.L1Cache_Controller.M_IL0.L0_Invalidate_Else::total      1447299                      
system.ruby.L1Cache_Controller.M_IL0.L0_Ack |          58      1.65%      1.65% |         389     11.06%     12.71% |         507     14.42%     27.13% |         386     10.98%     38.11% |         399     11.35%     49.46% |         368     10.47%     59.93% |         405     11.52%     71.44% |         530     15.07%     86.52% |         474     13.48%    100.00%
system.ruby.L1Cache_Controller.M_IL0.L0_Ack::total         3516                      
system.ruby.L1Cache_Controller.MM_IL0.Fwd_GETS |           0      0.00%      0.00% |           0      0.00%      0.00% |           0      0.00%      0.00% |           0      0.00%      0.00% |           8     42.11%     42.11% |           8     42.11%     84.21% |           3     15.79%    100.00% |           0      0.00%    100.00% |           0      0.00%    100.00%
system.ruby.L1Cache_Controller.MM_IL0.Fwd_GETS::total           19                      
system.ruby.L1Cache_Controller.MM_IL0.L0_Ack |           0      0.00%      0.00% |           0      0.00%      0.00% |           0      0.00%      0.00% |           0      0.00%      0.00% |           8     42.11%     42.11% |           8     42.11%     84.21% |           3     15.79%    100.00% |           0      0.00%    100.00% |           0      0.00%    100.00%
system.ruby.L1Cache_Controller.MM_IL0.L0_Ack::total           19                      
system.ruby.L2Cache_Controller.L1_GETS        7103160      0.00%      0.00%
system.ruby.L2Cache_Controller.L1_GETX        3915774      0.00%      0.00%
system.ruby.L2Cache_Controller.L1_UPGRADE      1428204      0.00%      0.00%
system.ruby.L2Cache_Controller.L1_PUTX        6473022      0.00%      0.00%
system.ruby.L2Cache_Controller.L1_PUTX_old            9      0.00%      0.00%
system.ruby.L2Cache_Controller.L2_Replacement      2379233      0.00%      0.00%
system.ruby.L2Cache_Controller.L2_Replacement_clean      1135392      0.00%      0.00%
system.ruby.L2Cache_Controller.Mem_Data       3842305      0.00%      0.00%
system.ruby.L2Cache_Controller.Mem_Ack        3514625      0.00%      0.00%
system.ruby.L2Cache_Controller.WB_Data        1190655      0.00%      0.00%
system.ruby.L2Cache_Controller.WB_Data_clean       211592      0.00%      0.00%
system.ruby.L2Cache_Controller.Ack                445      0.00%      0.00%
system.ruby.L2Cache_Controller.Ack_all           3896      0.00%      0.00%
system.ruby.L2Cache_Controller.Unblock         983329      0.00%      0.00%
system.ruby.L2Cache_Controller.Exclusive_Unblock      8613947      0.00%      0.00%
system.ruby.L2Cache_Controller.NP.L1_GETS      2390164      0.00%      0.00%
system.ruby.L2Cache_Controller.NP.L1_GETX      1452141      0.00%      0.00%
system.ruby.L2Cache_Controller.NP.L1_PUTX_old            4      0.00%      0.00%
system.ruby.L2Cache_Controller.SS.L1_GETS       327418      0.00%      0.00%
system.ruby.L2Cache_Controller.SS.L1_GETX        53863      0.00%      0.00%
system.ruby.L2Cache_Controller.SS.L1_UPGRADE       967960      0.00%      0.00%
system.ruby.L2Cache_Controller.SS.L1_PUTX            3      0.00%      0.00%
system.ruby.L2Cache_Controller.SS.L2_Replacement           55      0.00%      0.00%
system.ruby.L2Cache_Controller.SS.L2_Replacement_clean           26      0.00%      0.00%
system.ruby.L2Cache_Controller.M.L1_GETS      2246011      0.00%      0.00%
system.ruby.L2Cache_Controller.M.L1_GETX       837125      0.00%      0.00%
system.ruby.L2Cache_Controller.M.L2_Replacement      2364692      0.00%      0.00%
system.ruby.L2Cache_Controller.M.L2_Replacement_clean       727119      0.00%      0.00%
system.ruby.L2Cache_Controller.MT.L1_GETS       983329      0.00%      0.00%
system.ruby.L2Cache_Controller.MT.L1_GETX       705292      0.00%      0.00%
system.ruby.L2Cache_Controller.MT.L1_PUTX      6473016      0.00%      0.00%
system.ruby.L2Cache_Controller.MT.L2_Replacement        14486      0.00%      0.00%
system.ruby.L2Cache_Controller.MT.L2_Replacement_clean       408247      0.00%      0.00%
system.ruby.L2Cache_Controller.M_I.L1_GETS           32      0.00%      0.00%
system.ruby.L2Cache_Controller.M_I.L1_GETX           14      0.00%      0.00%
system.ruby.L2Cache_Controller.M_I.L1_PUTX_old            1      0.00%      0.00%
system.ruby.L2Cache_Controller.M_I.Mem_Ack      3514625      0.00%      0.00%
system.ruby.L2Cache_Controller.MT_I.L1_PUTX_old            1      0.00%      0.00%
system.ruby.L2Cache_Controller.MT_I.WB_Data        13459      0.00%      0.00%
system.ruby.L2Cache_Controller.MT_I.WB_Data_clean          536      0.00%      0.00%
system.ruby.L2Cache_Controller.MT_I.Ack_all          491      0.00%      0.00%
system.ruby.L2Cache_Controller.MCT_I.L1_PUTX_old            3      0.00%      0.00%
system.ruby.L2Cache_Controller.MCT_I.WB_Data       193905      0.00%      0.00%
system.ruby.L2Cache_Controller.MCT_I.WB_Data_clean       211018      0.00%      0.00%
system.ruby.L2Cache_Controller.MCT_I.Ack_all         3324      0.00%      0.00%
system.ruby.L2Cache_Controller.I_I.Ack            179      0.00%      0.00%
system.ruby.L2Cache_Controller.I_I.Ack_all           26      0.00%      0.00%
system.ruby.L2Cache_Controller.S_I.Ack            266      0.00%      0.00%
system.ruby.L2Cache_Controller.S_I.Ack_all           55      0.00%      0.00%
system.ruby.L2Cache_Controller.ISS.L1_GETS        38609      0.00%      0.00%
system.ruby.L2Cache_Controller.ISS.Mem_Data      2351555      0.00%      0.00%
system.ruby.L2Cache_Controller.IS.L1_GETS        18694      0.00%      0.00%
system.ruby.L2Cache_Controller.IS.Mem_Data        38609      0.00%      0.00%
system.ruby.L2Cache_Controller.IM.L1_GETX            2      0.00%      0.00%
system.ruby.L2Cache_Controller.IM.Mem_Data      1452141      0.00%      0.00%
system.ruby.L2Cache_Controller.SS_MB.L1_GETS       113487      0.00%      0.00%
system.ruby.L2Cache_Controller.SS_MB.L1_GETX       326235      0.00%      0.00%
system.ruby.L2Cache_Controller.SS_MB.L1_UPGRADE       460107      0.00%      0.00%
system.ruby.L2Cache_Controller.SS_MB.Exclusive_Unblock      1021823      0.00%      0.00%
system.ruby.L2Cache_Controller.MT_MB.L1_GETS       641033      0.00%      0.00%
system.ruby.L2Cache_Controller.MT_MB.L1_GETX       449013      0.00%      0.00%
system.ruby.L2Cache_Controller.MT_MB.Exclusive_Unblock      7592124      0.00%      0.00%
system.ruby.L2Cache_Controller.MT_IIB.L1_GETS       344299      0.00%      0.00%
system.ruby.L2Cache_Controller.MT_IIB.L1_GETX        92089      0.00%      0.00%
system.ruby.L2Cache_Controller.MT_IIB.L1_UPGRADE          134      0.00%      0.00%
system.ruby.L2Cache_Controller.MT_IIB.L1_PUTX            3      0.00%      0.00%
system.ruby.L2Cache_Controller.MT_IIB.WB_Data       930414      0.00%      0.00%
system.ruby.L2Cache_Controller.MT_IIB.WB_Data_clean           37      0.00%      0.00%
system.ruby.L2Cache_Controller.MT_IIB.Unblock        52878      0.00%      0.00%
system.ruby.L2Cache_Controller.MT_IB.L1_GETS            4      0.00%      0.00%
system.ruby.L2Cache_Controller.MT_IB.WB_Data        52877      0.00%      0.00%
system.ruby.L2Cache_Controller.MT_IB.WB_Data_clean            1      0.00%      0.00%
system.ruby.L2Cache_Controller.MT_SB.L1_GETS           80      0.00%      0.00%
system.ruby.L2Cache_Controller.MT_SB.L1_UPGRADE            3      0.00%      0.00%
system.ruby.L2Cache_Controller.MT_SB.Unblock       930451      0.00%      0.00%

---------- End Simulation Statistics   ----------
