
---------- Begin Simulation Statistics ----------
sim_seconds                                  0.409039                       # Number of seconds simulated
sim_ticks                                409038758500                       # Number of ticks simulated
final_tick                               409038758500                       # Number of ticks from beginning of simulation (restored from checkpoints and never reset)
sim_freq                                 1000000000000                       # Frequency of simulated ticks
host_inst_rate                                 152302                       # Simulator instruction rate (inst/s)
host_op_rate                                   416061                       # Simulator op (including micro ops) rate (op/s)
host_tick_rate                              261641922                       # Simulator tick rate (ticks/s)
host_mem_usage                                 882996                       # Number of bytes of host memory used
host_seconds                                  1563.35                       # Real time elapsed on the host
sim_insts                                   238102453                       # Number of instructions simulated
sim_ops                                     650450594                       # Number of ops (including micro ops) simulated
system.voltage_domain.voltage                       1                       # Voltage in Volts
system.clk_domain.clock                          1000                       # Clock period in ticks
system.mem_ctrls.bytes_read::ruby.dir_cntrl0     18485952                       # Number of bytes read from this memory
system.mem_ctrls.bytes_read::total           18485952                       # Number of bytes read from this memory
system.mem_ctrls.num_reads::ruby.dir_cntrl0       288843                       # Number of read requests responded to by this memory
system.mem_ctrls.num_reads::total              288843                       # Number of read requests responded to by this memory
system.mem_ctrls.bw_read::ruby.dir_cntrl0     45193644                       # Total read bandwidth from this memory (bytes/s)
system.mem_ctrls.bw_read::total              45193644                       # Total read bandwidth from this memory (bytes/s)
system.mem_ctrls.bw_total::ruby.dir_cntrl0     45193644                       # Total bandwidth to/from this memory (bytes/s)
system.mem_ctrls.bw_total::total             45193644                       # Total bandwidth to/from this memory (bytes/s)
system.mem_ctrls.readReqs                      288843                       # Number of read requests accepted
system.mem_ctrls.writeReqs                          0                       # Number of write requests accepted
system.mem_ctrls.readBursts                    288843                       # Number of DRAM read bursts, including those serviced by the write queue
system.mem_ctrls.writeBursts                        0                       # Number of DRAM write bursts, including those merged in the write queue
system.mem_ctrls.bytesReadDRAM               18485952                       # Total number of bytes read from DRAM
system.mem_ctrls.bytesReadWrQ                       0                       # Total number of bytes read from write queue
system.mem_ctrls.bytesWritten                       0                       # Total number of bytes written to DRAM
system.mem_ctrls.bytesReadSys                18485952                       # Total read bytes from the system interface side
system.mem_ctrls.bytesWrittenSys                    0                       # Total written bytes from the system interface side
system.mem_ctrls.servicedByWrQ                      0                       # Number of DRAM read bursts serviced by the write queue
system.mem_ctrls.mergedWrBursts                     0                       # Number of DRAM write bursts merged with an existing one
system.mem_ctrls.neitherReadNorWriteReqs            0                       # Number of requests that are neither read nor write
system.mem_ctrls.perBankRdBursts::0             18021                       # Per bank write bursts
system.mem_ctrls.perBankRdBursts::1             18065                       # Per bank write bursts
system.mem_ctrls.perBankRdBursts::2             17986                       # Per bank write bursts
system.mem_ctrls.perBankRdBursts::3             17904                       # Per bank write bursts
system.mem_ctrls.perBankRdBursts::4             17960                       # Per bank write bursts
system.mem_ctrls.perBankRdBursts::5             17861                       # Per bank write bursts
system.mem_ctrls.perBankRdBursts::6             18210                       # Per bank write bursts
system.mem_ctrls.perBankRdBursts::7             18123                       # Per bank write bursts
system.mem_ctrls.perBankRdBursts::8             18046                       # Per bank write bursts
system.mem_ctrls.perBankRdBursts::9             18210                       # Per bank write bursts
system.mem_ctrls.perBankRdBursts::10            18282                       # Per bank write bursts
system.mem_ctrls.perBankRdBursts::11            18239                       # Per bank write bursts
system.mem_ctrls.perBankRdBursts::12            18010                       # Per bank write bursts
system.mem_ctrls.perBankRdBursts::13            18004                       # Per bank write bursts
system.mem_ctrls.perBankRdBursts::14            17949                       # Per bank write bursts
system.mem_ctrls.perBankRdBursts::15            17973                       # Per bank write bursts
system.mem_ctrls.perBankWrBursts::0                 0                       # Per bank write bursts
system.mem_ctrls.perBankWrBursts::1                 0                       # Per bank write bursts
system.mem_ctrls.perBankWrBursts::2                 0                       # Per bank write bursts
system.mem_ctrls.perBankWrBursts::3                 0                       # Per bank write bursts
system.mem_ctrls.perBankWrBursts::4                 0                       # Per bank write bursts
system.mem_ctrls.perBankWrBursts::5                 0                       # Per bank write bursts
system.mem_ctrls.perBankWrBursts::6                 0                       # Per bank write bursts
system.mem_ctrls.perBankWrBursts::7                 0                       # Per bank write bursts
system.mem_ctrls.perBankWrBursts::8                 0                       # Per bank write bursts
system.mem_ctrls.perBankWrBursts::9                 0                       # Per bank write bursts
system.mem_ctrls.perBankWrBursts::10                0                       # Per bank write bursts
system.mem_ctrls.perBankWrBursts::11                0                       # Per bank write bursts
system.mem_ctrls.perBankWrBursts::12                0                       # Per bank write bursts
system.mem_ctrls.perBankWrBursts::13                0                       # Per bank write bursts
system.mem_ctrls.perBankWrBursts::14                0                       # Per bank write bursts
system.mem_ctrls.perBankWrBursts::15                0                       # Per bank write bursts
system.mem_ctrls.numRdRetry                         0                       # Number of times read queue was full causing retry
system.mem_ctrls.numWrRetry                         0                       # Number of times write queue was full causing retry
system.mem_ctrls.totGap                  409038678000                       # Total gap between requests
system.mem_ctrls.readPktSize::0                     0                       # Read request sizes (log2)
system.mem_ctrls.readPktSize::1                     0                       # Read request sizes (log2)
system.mem_ctrls.readPktSize::2                     0                       # Read request sizes (log2)
system.mem_ctrls.readPktSize::3                     0                       # Read request sizes (log2)
system.mem_ctrls.readPktSize::4                     0                       # Read request sizes (log2)
system.mem_ctrls.readPktSize::5                     0                       # Read request sizes (log2)
system.mem_ctrls.readPktSize::6                288843                       # Read request sizes (log2)
system.mem_ctrls.writePktSize::0                    0                       # Write request sizes (log2)
system.mem_ctrls.writePktSize::1                    0                       # Write request sizes (log2)
system.mem_ctrls.writePktSize::2                    0                       # Write request sizes (log2)
system.mem_ctrls.writePktSize::3                    0                       # Write request sizes (log2)
system.mem_ctrls.writePktSize::4                    0                       # Write request sizes (log2)
system.mem_ctrls.writePktSize::5                    0                       # Write request sizes (log2)
system.mem_ctrls.writePktSize::6                    0                       # Write request sizes (log2)
system.mem_ctrls.rdQLenPdf::0                  288842                       # What read queue length does an incoming req see
system.mem_ctrls.rdQLenPdf::1                       1                       # What read queue length does an incoming req see
system.mem_ctrls.rdQLenPdf::2                       0                       # What read queue length does an incoming req see
system.mem_ctrls.rdQLenPdf::3                       0                       # What read queue length does an incoming req see
system.mem_ctrls.rdQLenPdf::4                       0                       # What read queue length does an incoming req see
system.mem_ctrls.rdQLenPdf::5                       0                       # What read queue length does an incoming req see
system.mem_ctrls.rdQLenPdf::6                       0                       # What read queue length does an incoming req see
system.mem_ctrls.rdQLenPdf::7                       0                       # What read queue length does an incoming req see
system.mem_ctrls.rdQLenPdf::8                       0                       # What read queue length does an incoming req see
system.mem_ctrls.rdQLenPdf::9                       0                       # What read queue length does an incoming req see
system.mem_ctrls.rdQLenPdf::10                      0                       # What read queue length does an incoming req see
system.mem_ctrls.rdQLenPdf::11                      0                       # What read queue length does an incoming req see
system.mem_ctrls.rdQLenPdf::12                      0                       # What read queue length does an incoming req see
system.mem_ctrls.rdQLenPdf::13                      0                       # What read queue length does an incoming req see
system.mem_ctrls.rdQLenPdf::14                      0                       # What read queue length does an incoming req see
system.mem_ctrls.rdQLenPdf::15                      0                       # What read queue length does an incoming req see
system.mem_ctrls.rdQLenPdf::16                      0                       # What read queue length does an incoming req see
system.mem_ctrls.rdQLenPdf::17                      0                       # What read queue length does an incoming req see
system.mem_ctrls.rdQLenPdf::18                      0                       # What read queue length does an incoming req see
system.mem_ctrls.rdQLenPdf::19                      0                       # What read queue length does an incoming req see
system.mem_ctrls.rdQLenPdf::20                      0                       # What read queue length does an incoming req see
system.mem_ctrls.rdQLenPdf::21                      0                       # What read queue length does an incoming req see
system.mem_ctrls.rdQLenPdf::22                      0                       # What read queue length does an incoming req see
system.mem_ctrls.rdQLenPdf::23                      0                       # What read queue length does an incoming req see
system.mem_ctrls.rdQLenPdf::24                      0                       # What read queue length does an incoming req see
system.mem_ctrls.rdQLenPdf::25                      0                       # What read queue length does an incoming req see
system.mem_ctrls.rdQLenPdf::26                      0                       # What read queue length does an incoming req see
system.mem_ctrls.rdQLenPdf::27                      0                       # What read queue length does an incoming req see
system.mem_ctrls.rdQLenPdf::28                      0                       # What read queue length does an incoming req see
system.mem_ctrls.rdQLenPdf::29                      0                       # What read queue length does an incoming req see
system.mem_ctrls.rdQLenPdf::30                      0                       # What read queue length does an incoming req see
system.mem_ctrls.rdQLenPdf::31                      0                       # What read queue length does an incoming req see
system.mem_ctrls.wrQLenPdf::0                       0                       # What write queue length does an incoming req see
system.mem_ctrls.wrQLenPdf::1                       0                       # What write queue length does an incoming req see
system.mem_ctrls.wrQLenPdf::2                       0                       # What write queue length does an incoming req see
system.mem_ctrls.wrQLenPdf::3                       0                       # What write queue length does an incoming req see
system.mem_ctrls.wrQLenPdf::4                       0                       # What write queue length does an incoming req see
system.mem_ctrls.wrQLenPdf::5                       0                       # What write queue length does an incoming req see
system.mem_ctrls.wrQLenPdf::6                       0                       # What write queue length does an incoming req see
system.mem_ctrls.wrQLenPdf::7                       0                       # What write queue length does an incoming req see
system.mem_ctrls.wrQLenPdf::8                       0                       # What write queue length does an incoming req see
system.mem_ctrls.wrQLenPdf::9                       0                       # What write queue length does an incoming req see
system.mem_ctrls.wrQLenPdf::10                      0                       # What write queue length does an incoming req see
system.mem_ctrls.wrQLenPdf::11                      0                       # What write queue length does an incoming req see
system.mem_ctrls.wrQLenPdf::12                      0                       # What write queue length does an incoming req see
system.mem_ctrls.wrQLenPdf::13                      0                       # What write queue length does an incoming req see
system.mem_ctrls.wrQLenPdf::14                      0                       # What write queue length does an incoming req see
system.mem_ctrls.wrQLenPdf::15                      0                       # What write queue length does an incoming req see
system.mem_ctrls.wrQLenPdf::16                      0                       # What write queue length does an incoming req see
system.mem_ctrls.wrQLenPdf::17                      0                       # What write queue length does an incoming req see
system.mem_ctrls.wrQLenPdf::18                      0                       # What write queue length does an incoming req see
system.mem_ctrls.wrQLenPdf::19                      0                       # What write queue length does an incoming req see
system.mem_ctrls.wrQLenPdf::20                      0                       # What write queue length does an incoming req see
system.mem_ctrls.wrQLenPdf::21                      0                       # What write queue length does an incoming req see
system.mem_ctrls.wrQLenPdf::22                      0                       # What write queue length does an incoming req see
system.mem_ctrls.wrQLenPdf::23                      0                       # What write queue length does an incoming req see
system.mem_ctrls.wrQLenPdf::24                      0                       # What write queue length does an incoming req see
system.mem_ctrls.wrQLenPdf::25                      0                       # What write queue length does an incoming req see
system.mem_ctrls.wrQLenPdf::26                      0                       # What write queue length does an incoming req see
system.mem_ctrls.wrQLenPdf::27                      0                       # What write queue length does an incoming req see
system.mem_ctrls.wrQLenPdf::28                      0                       # What write queue length does an incoming req see
system.mem_ctrls.wrQLenPdf::29                      0                       # What write queue length does an incoming req see
system.mem_ctrls.wrQLenPdf::30                      0                       # What write queue length does an incoming req see
system.mem_ctrls.wrQLenPdf::31                      0                       # What write queue length does an incoming req see
system.mem_ctrls.wrQLenPdf::32                      0                       # What write queue length does an incoming req see
system.mem_ctrls.wrQLenPdf::33                      0                       # What write queue length does an incoming req see
system.mem_ctrls.wrQLenPdf::34                      0                       # What write queue length does an incoming req see
system.mem_ctrls.wrQLenPdf::35                      0                       # What write queue length does an incoming req see
system.mem_ctrls.wrQLenPdf::36                      0                       # What write queue length does an incoming req see
system.mem_ctrls.wrQLenPdf::37                      0                       # What write queue length does an incoming req see
system.mem_ctrls.wrQLenPdf::38                      0                       # What write queue length does an incoming req see
system.mem_ctrls.wrQLenPdf::39                      0                       # What write queue length does an incoming req see
system.mem_ctrls.wrQLenPdf::40                      0                       # What write queue length does an incoming req see
system.mem_ctrls.wrQLenPdf::41                      0                       # What write queue length does an incoming req see
system.mem_ctrls.wrQLenPdf::42                      0                       # What write queue length does an incoming req see
system.mem_ctrls.wrQLenPdf::43                      0                       # What write queue length does an incoming req see
system.mem_ctrls.wrQLenPdf::44                      0                       # What write queue length does an incoming req see
system.mem_ctrls.wrQLenPdf::45                      0                       # What write queue length does an incoming req see
system.mem_ctrls.wrQLenPdf::46                      0                       # What write queue length does an incoming req see
system.mem_ctrls.wrQLenPdf::47                      0                       # What write queue length does an incoming req see
system.mem_ctrls.wrQLenPdf::48                      0                       # What write queue length does an incoming req see
system.mem_ctrls.wrQLenPdf::49                      0                       # What write queue length does an incoming req see
system.mem_ctrls.wrQLenPdf::50                      0                       # What write queue length does an incoming req see
system.mem_ctrls.wrQLenPdf::51                      0                       # What write queue length does an incoming req see
system.mem_ctrls.wrQLenPdf::52                      0                       # What write queue length does an incoming req see
system.mem_ctrls.wrQLenPdf::53                      0                       # What write queue length does an incoming req see
system.mem_ctrls.wrQLenPdf::54                      0                       # What write queue length does an incoming req see
system.mem_ctrls.wrQLenPdf::55                      0                       # What write queue length does an incoming req see
system.mem_ctrls.wrQLenPdf::56                      0                       # What write queue length does an incoming req see
system.mem_ctrls.wrQLenPdf::57                      0                       # What write queue length does an incoming req see
system.mem_ctrls.wrQLenPdf::58                      0                       # What write queue length does an incoming req see
system.mem_ctrls.wrQLenPdf::59                      0                       # What write queue length does an incoming req see
system.mem_ctrls.wrQLenPdf::60                      0                       # What write queue length does an incoming req see
system.mem_ctrls.wrQLenPdf::61                      0                       # What write queue length does an incoming req see
system.mem_ctrls.wrQLenPdf::62                      0                       # What write queue length does an incoming req see
system.mem_ctrls.wrQLenPdf::63                      0                       # What write queue length does an incoming req see
system.mem_ctrls.bytesPerActivate::samples        52502                       # Bytes accessed per row activation
system.mem_ctrls.bytesPerActivate::mean    352.062169                       # Bytes accessed per row activation
system.mem_ctrls.bytesPerActivate::gmean   306.997919                       # Bytes accessed per row activation
system.mem_ctrls.bytesPerActivate::stdev   204.549415                       # Bytes accessed per row activation
system.mem_ctrls.bytesPerActivate::0-127         1713      3.26%      3.26% # Bytes accessed per row activation
system.mem_ctrls.bytesPerActivate::128-255         2192      4.18%      7.44% # Bytes accessed per row activation
system.mem_ctrls.bytesPerActivate::256-383        36033     68.63%     76.07% # Bytes accessed per row activation
system.mem_ctrls.bytesPerActivate::384-511         2630      5.01%     81.08% # Bytes accessed per row activation
system.mem_ctrls.bytesPerActivate::512-639         2985      5.69%     86.76% # Bytes accessed per row activation
system.mem_ctrls.bytesPerActivate::640-767         2566      4.89%     91.65% # Bytes accessed per row activation
system.mem_ctrls.bytesPerActivate::768-895         2028      3.86%     95.51% # Bytes accessed per row activation
system.mem_ctrls.bytesPerActivate::896-1023         1371      2.61%     98.13% # Bytes accessed per row activation
system.mem_ctrls.bytesPerActivate::1024-1151          984      1.87%    100.00% # Bytes accessed per row activation
system.mem_ctrls.bytesPerActivate::total        52502                       # Bytes accessed per row activation
system.mem_ctrls.totQLat                   2628156249                       # Total ticks spent queuing
system.mem_ctrls.totMemAccLat              8043962499                       # Total ticks spent from burst creation until serviced by the DRAM
system.mem_ctrls.totBusLat                 1444215000                       # Total ticks spent in databus transfers
system.mem_ctrls.avgQLat                      9098.91                       # Average queueing delay per DRAM burst
system.mem_ctrls.avgBusLat                    5000.00                       # Average bus latency per DRAM burst
system.mem_ctrls.avgMemAccLat                27848.91                       # Average memory access latency per DRAM burst
system.mem_ctrls.avgRdBW                        45.19                       # Average DRAM read bandwidth in MiByte/s
system.mem_ctrls.avgWrBW                         0.00                       # Average achieved write bandwidth in MiByte/s
system.mem_ctrls.avgRdBWSys                     45.19                       # Average system read bandwidth in MiByte/s
system.mem_ctrls.avgWrBWSys                      0.00                       # Average system write bandwidth in MiByte/s
system.mem_ctrls.peakBW                      12800.00                       # Theoretical peak bandwidth in MiByte/s
system.mem_ctrls.busUtil                         0.35                       # Data bus utilization in percentage
system.mem_ctrls.busUtilRead                     0.35                       # Data bus utilization in percentage for reads
system.mem_ctrls.busUtilWrite                    0.00                       # Data bus utilization in percentage for writes
system.mem_ctrls.avgRdQLen                       1.00                       # Average read queue length when enqueuing
system.mem_ctrls.avgWrQLen                       0.00                       # Average write queue length when enqueuing
system.mem_ctrls.readRowHits                   236330                       # Number of row buffer hits during reads
system.mem_ctrls.writeRowHits                       0                       # Number of row buffer hits during writes
system.mem_ctrls.readRowHitRate                 81.82                       # Row buffer hit rate for reads
system.mem_ctrls.writeRowHitRate                  nan                       # Row buffer hit rate for writes
system.mem_ctrls.avgGap                    1416128.06                       # Average gap between requests
system.mem_ctrls.pageHitRate                    81.82                       # Row buffer hit rate, read and write combined
system.mem_ctrls_0.actEnergy                198155160                       # Energy for activate commands per rank (pJ)
system.mem_ctrls_0.preEnergy                108120375                       # Energy for precharge commands per rank (pJ)
system.mem_ctrls_0.readEnergy              1124104800                       # Energy for read commands per rank (pJ)
system.mem_ctrls_0.writeEnergy                      0                       # Energy for write commands per rank (pJ)
system.mem_ctrls_0.refreshEnergy          26716182480                       # Energy for refresh commands per rank (pJ)
system.mem_ctrls_0.actBackEnergy         124818585750                       # Energy for active background per rank (pJ)
system.mem_ctrls_0.preBackEnergy         135931211250                       # Energy for precharge background per rank (pJ)
system.mem_ctrls_0.totalEnergy           288896359815                       # Total energy per rank (pJ)
system.mem_ctrls_0.averagePower            706.287056                       # Core power per rank (mW)
system.mem_ctrls_0.memoryStateTime::IDLE 225474679500                       # Time in different power states
system.mem_ctrls_0.memoryStateTime::REF   13658580000                       # Time in different power states
system.mem_ctrls_0.memoryStateTime::PRE_PDN            0                       # Time in different power states
system.mem_ctrls_0.memoryStateTime::ACT  169902085500                       # Time in different power states
system.mem_ctrls_0.memoryStateTime::ACT_PDN            0                       # Time in different power states
system.mem_ctrls_1.actEnergy                198744840                       # Energy for activate commands per rank (pJ)
system.mem_ctrls_1.preEnergy                108442125                       # Energy for precharge commands per rank (pJ)
system.mem_ctrls_1.readEnergy              1128597600                       # Energy for read commands per rank (pJ)
system.mem_ctrls_1.writeEnergy                      0                       # Energy for write commands per rank (pJ)
system.mem_ctrls_1.refreshEnergy          26716182480                       # Energy for refresh commands per rank (pJ)
system.mem_ctrls_1.actBackEnergy         125958804345                       # Energy for active background per rank (pJ)
system.mem_ctrls_1.preBackEnergy         134931011250                       # Energy for precharge background per rank (pJ)
system.mem_ctrls_1.totalEnergy           289041782640                       # Total energy per rank (pJ)
system.mem_ctrls_1.averagePower            706.642606                       # Core power per rank (mW)
system.mem_ctrls_1.memoryStateTime::IDLE 223805667500                       # Time in different power states
system.mem_ctrls_1.memoryStateTime::REF   13658580000                       # Time in different power states
system.mem_ctrls_1.memoryStateTime::PRE_PDN            0                       # Time in different power states
system.mem_ctrls_1.memoryStateTime::ACT  171572232000                       # Time in different power states
system.mem_ctrls_1.memoryStateTime::ACT_PDN            0                       # Time in different power states
system.cpu_voltage_domain.voltage                   1                       # Voltage in Volts
system.cpu_clk_domain.clock                       500                       # Clock period in ticks
system.cpu0.apic_clk_domain.clock                8000                       # Clock period in ticks
system.cpu0.workload.num_syscalls                  69                       # Number of system calls
system.cpu0.numCycles                       818077517                       # number of cpu cycles simulated
system.cpu0.numWorkItemsStarted                     0                       # number of work items this cpu started
system.cpu0.numWorkItemsCompleted                   0                       # number of work items this cpu completed
system.cpu0.committedInsts                  223584787                       # Number of instructions committed
system.cpu0.committedOps                    621416837                       # Number of ops (including micro ops) committed
system.cpu0.num_int_alu_accesses            587188406                       # Number of integer alu accesses
system.cpu0.num_fp_alu_accesses              14535662                       # Number of float alu accesses
system.cpu0.num_func_calls                   20378864                       # number of times a function call or return occured
system.cpu0.num_conditional_control_insts     49050244                       # number of instructions that are conditional controls
system.cpu0.num_int_insts                   587188406                       # number of integer instructions
system.cpu0.num_fp_insts                     14535662                       # number of float instructions
system.cpu0.num_int_register_reads         1239935284                       # number of times the integer registers were read
system.cpu0.num_int_register_writes         580390097                       # number of times the integer registers were written
system.cpu0.num_fp_register_reads            23359492                       # number of times the floating registers were read
system.cpu0.num_fp_register_writes           11424760                       # number of times the floating registers were written
system.cpu0.num_cc_register_reads           497164682                       # number of times the CC registers were read
system.cpu0.num_cc_register_writes          185856507                       # number of times the CC registers were written
system.cpu0.num_mem_refs                     99252663                       # number of memory refs
system.cpu0.num_load_insts                   60757837                       # Number of load instructions
system.cpu0.num_store_insts                  38494826                       # Number of store instructions
system.cpu0.num_idle_cycles                  0.002000                       # Number of idle cycles
system.cpu0.num_busy_cycles              818077516.998000                       # Number of busy cycles
system.cpu0.not_idle_fraction                1.000000                       # Percentage of non-idle cycles
system.cpu0.idle_fraction                    0.000000                       # Percentage of idle cycles
system.cpu0.Branches                         79199500                       # Number of branches fetched
system.cpu0.op_class::No_OpClass             11822252      1.90%      1.90% # Class of executed instruction
system.cpu0.op_class::IntAlu                448034186     72.10%     74.00% # Class of executed instruction
system.cpu0.op_class::IntMult                     318      0.00%     74.00% # Class of executed instruction
system.cpu0.op_class::IntDiv                 50883430      8.19%     82.19% # Class of executed instruction
system.cpu0.op_class::FloatAdd               11423988      1.84%     84.03% # Class of executed instruction
system.cpu0.op_class::FloatCmp                      0      0.00%     84.03% # Class of executed instruction
system.cpu0.op_class::FloatCvt                      0      0.00%     84.03% # Class of executed instruction
system.cpu0.op_class::FloatMult                     0      0.00%     84.03% # Class of executed instruction
system.cpu0.op_class::FloatDiv                      0      0.00%     84.03% # Class of executed instruction
system.cpu0.op_class::FloatSqrt                     0      0.00%     84.03% # Class of executed instruction
system.cpu0.op_class::SimdAdd                       0      0.00%     84.03% # Class of executed instruction
system.cpu0.op_class::SimdAddAcc                    0      0.00%     84.03% # Class of executed instruction
system.cpu0.op_class::SimdAlu                       0      0.00%     84.03% # Class of executed instruction
system.cpu0.op_class::SimdCmp                       0      0.00%     84.03% # Class of executed instruction
system.cpu0.op_class::SimdCvt                       0      0.00%     84.03% # Class of executed instruction
system.cpu0.op_class::SimdMisc                      0      0.00%     84.03% # Class of executed instruction
system.cpu0.op_class::SimdMult                      0      0.00%     84.03% # Class of executed instruction
system.cpu0.op_class::SimdMultAcc                   0      0.00%     84.03% # Class of executed instruction
system.cpu0.op_class::SimdShift                     0      0.00%     84.03% # Class of executed instruction
system.cpu0.op_class::SimdShiftAcc                  0      0.00%     84.03% # Class of executed instruction
system.cpu0.op_class::SimdSqrt                      0      0.00%     84.03% # Class of executed instruction
system.cpu0.op_class::SimdFloatAdd                  0      0.00%     84.03% # Class of executed instruction
system.cpu0.op_class::SimdFloatAlu                  0      0.00%     84.03% # Class of executed instruction
system.cpu0.op_class::SimdFloatCmp                  0      0.00%     84.03% # Class of executed instruction
system.cpu0.op_class::SimdFloatCvt                  0      0.00%     84.03% # Class of executed instruction
system.cpu0.op_class::SimdFloatDiv                  0      0.00%     84.03% # Class of executed instruction
system.cpu0.op_class::SimdFloatMisc                 0      0.00%     84.03% # Class of executed instruction
system.cpu0.op_class::SimdFloatMult                 0      0.00%     84.03% # Class of executed instruction
system.cpu0.op_class::SimdFloatMultAcc              0      0.00%     84.03% # Class of executed instruction
system.cpu0.op_class::SimdFloatSqrt                 0      0.00%     84.03% # Class of executed instruction
system.cpu0.op_class::MemRead                60757837      9.78%     93.81% # Class of executed instruction
system.cpu0.op_class::MemWrite               38494826      6.19%    100.00% # Class of executed instruction
system.cpu0.op_class::IprAccess                     0      0.00%    100.00% # Class of executed instruction
system.cpu0.op_class::InstPrefetch                  0      0.00%    100.00% # Class of executed instruction
system.cpu0.op_class::total                 621416837                       # Class of executed instruction
system.cpu1.apic_clk_domain.clock                8000                       # Clock period in ticks
system.cpu1.numCycles                       817857464                       # number of cpu cycles simulated
system.cpu1.numWorkItemsStarted                     0                       # number of work items this cpu started
system.cpu1.numWorkItemsCompleted                   0                       # number of work items this cpu completed
system.cpu1.committedInsts                   14517666                       # Number of instructions committed
system.cpu1.committedOps                     29033757                       # Number of ops (including micro ops) committed
system.cpu1.num_int_alu_accesses             21791557                       # Number of integer alu accesses
system.cpu1.num_fp_alu_accesses              14221533                       # Number of float alu accesses
system.cpu1.num_func_calls                      40491                       # number of times a function call or return occured
system.cpu1.num_conditional_control_insts      1783388                       # number of instructions that are conditional controls
system.cpu1.num_int_insts                    21791557                       # number of integer instructions
system.cpu1.num_fp_insts                     14221533                       # number of float instructions
system.cpu1.num_int_register_reads           38295436                       # number of times the integer registers were read
system.cpu1.num_int_register_writes          13006896                       # number of times the integer registers were written
system.cpu1.num_fp_register_reads            21544607                       # number of times the floating registers were read
system.cpu1.num_fp_register_writes           14201308                       # number of times the floating registers were written
system.cpu1.num_cc_register_reads            10720594                       # number of times the CC registers were read
system.cpu1.num_cc_register_writes           10714260                       # number of times the CC registers were written
system.cpu1.num_mem_refs                      7083855                       # number of memory refs
system.cpu1.num_load_insts                    7043298                       # Number of load instructions
system.cpu1.num_store_insts                     40557                       # Number of store instructions
system.cpu1.num_idle_cycles              757720445.486256                       # Number of idle cycles
system.cpu1.num_busy_cycles              60137018.513744                       # Number of busy cycles
system.cpu1.not_idle_fraction                0.073530                       # Percentage of non-idle cycles
system.cpu1.idle_fraction                    0.926470                       # Percentage of idle cycles
system.cpu1.Branches                          1845678                       # Number of branches fetched
system.cpu1.op_class::No_OpClass                    2      0.00%      0.00% # Class of executed instruction
system.cpu1.op_class::IntAlu                 14647016     50.45%     50.45% # Class of executed instruction
system.cpu1.op_class::IntMult                   60671      0.21%     50.66% # Class of executed instruction
system.cpu1.op_class::IntDiv                       14      0.00%     50.66% # Class of executed instruction
system.cpu1.op_class::FloatAdd                7242199     24.94%     75.60% # Class of executed instruction
system.cpu1.op_class::FloatCmp                      0      0.00%     75.60% # Class of executed instruction
system.cpu1.op_class::FloatCvt                      0      0.00%     75.60% # Class of executed instruction
system.cpu1.op_class::FloatMult                     0      0.00%     75.60% # Class of executed instruction
system.cpu1.op_class::FloatDiv                      0      0.00%     75.60% # Class of executed instruction
system.cpu1.op_class::FloatSqrt                     0      0.00%     75.60% # Class of executed instruction
system.cpu1.op_class::SimdAdd                       0      0.00%     75.60% # Class of executed instruction
system.cpu1.op_class::SimdAddAcc                    0      0.00%     75.60% # Class of executed instruction
system.cpu1.op_class::SimdAlu                       0      0.00%     75.60% # Class of executed instruction
system.cpu1.op_class::SimdCmp                       0      0.00%     75.60% # Class of executed instruction
system.cpu1.op_class::SimdCvt                       0      0.00%     75.60% # Class of executed instruction
system.cpu1.op_class::SimdMisc                      0      0.00%     75.60% # Class of executed instruction
system.cpu1.op_class::SimdMult                      0      0.00%     75.60% # Class of executed instruction
system.cpu1.op_class::SimdMultAcc                   0      0.00%     75.60% # Class of executed instruction
system.cpu1.op_class::SimdShift                     0      0.00%     75.60% # Class of executed instruction
system.cpu1.op_class::SimdShiftAcc                  0      0.00%     75.60% # Class of executed instruction
system.cpu1.op_class::SimdSqrt                      0      0.00%     75.60% # Class of executed instruction
system.cpu1.op_class::SimdFloatAdd                  0      0.00%     75.60% # Class of executed instruction
system.cpu1.op_class::SimdFloatAlu                  0      0.00%     75.60% # Class of executed instruction
system.cpu1.op_class::SimdFloatCmp                  0      0.00%     75.60% # Class of executed instruction
system.cpu1.op_class::SimdFloatCvt                  0      0.00%     75.60% # Class of executed instruction
system.cpu1.op_class::SimdFloatDiv                  0      0.00%     75.60% # Class of executed instruction
system.cpu1.op_class::SimdFloatMisc                 0      0.00%     75.60% # Class of executed instruction
system.cpu1.op_class::SimdFloatMult                 0      0.00%     75.60% # Class of executed instruction
system.cpu1.op_class::SimdFloatMultAcc              0      0.00%     75.60% # Class of executed instruction
system.cpu1.op_class::SimdFloatSqrt                 0      0.00%     75.60% # Class of executed instruction
system.cpu1.op_class::MemRead                 7043298     24.26%     99.86% # Class of executed instruction
system.cpu1.op_class::MemWrite                  40557      0.14%    100.00% # Class of executed instruction
system.cpu1.op_class::IprAccess                     0      0.00%    100.00% # Class of executed instruction
system.cpu1.op_class::InstPrefetch                  0      0.00%    100.00% # Class of executed instruction
system.cpu1.op_class::total                  29033757                       # Class of executed instruction
system.ruby.clk_domain.clock                      500                       # Clock period in ticks
system.ruby.delayHist::bucket_size                  2                       # delay histogram for all message
system.ruby.delayHist::max_bucket                  19                       # delay histogram for all message
system.ruby.delayHist::samples                4545292                       # delay histogram for all message
system.ruby.delayHist::mean                  0.526217                       # delay histogram for all message
system.ruby.delayHist::stdev                 1.982850                       # delay histogram for all message
system.ruby.delayHist                    |     4246169     93.42%     93.42% |          26      0.00%     93.42% |         345      0.01%     93.43% |           0      0.00%     93.43% |      298749      6.57%    100.00% |           1      0.00%    100.00% |           0      0.00%    100.00% |           1      0.00%    100.00% |           0      0.00%    100.00% |           1      0.00%    100.00% # delay histogram for all message
system.ruby.delayHist::total                  4545292                       # delay histogram for all message
system.ruby.outstanding_req_hist::bucket_size            1                      
system.ruby.outstanding_req_hist::max_bucket            9                      
system.ruby.outstanding_req_hist::samples    415241876                      
system.ruby.outstanding_req_hist::mean       1.000178                      
system.ruby.outstanding_req_hist::gmean      1.000123                      
system.ruby.outstanding_req_hist::stdev      0.013329                      
system.ruby.outstanding_req_hist         |           0      0.00%      0.00% |   415168086     99.98%     99.98% |       73790      0.02%    100.00% |           0      0.00%    100.00% |           0      0.00%    100.00% |           0      0.00%    100.00% |           0      0.00%    100.00% |           0      0.00%    100.00% |           0      0.00%    100.00% |           0      0.00%    100.00%
system.ruby.outstanding_req_hist::total     415241876                      
system.ruby.latency_hist::bucket_size             128                      
system.ruby.latency_hist::max_bucket             1279                      
system.ruby.latency_hist::samples           415241876                      
system.ruby.latency_hist::mean               1.115253                      
system.ruby.latency_hist::gmean              1.006597                      
system.ruby.latency_hist::stdev              4.181005                      
system.ruby.latency_hist                 |   415189362     99.99%     99.99% |       43072      0.01%    100.00% |        1155      0.00%    100.00% |        1035      0.00%    100.00% |        6697      0.00%    100.00% |         555      0.00%    100.00% |           0      0.00%    100.00% |           0      0.00%    100.00% |           0      0.00%    100.00% |           0      0.00%    100.00%
system.ruby.latency_hist::total             415241876                      
system.ruby.hit_latency_hist::bucket_size          128                      
system.ruby.hit_latency_hist::max_bucket         1279                      
system.ruby.hit_latency_hist::samples       415241876                      
system.ruby.hit_latency_hist::mean           1.115253                      
system.ruby.hit_latency_hist::gmean          1.006597                      
system.ruby.hit_latency_hist::stdev          4.181005                      
system.ruby.hit_latency_hist             |   415189362     99.99%     99.99% |       43072      0.01%    100.00% |        1155      0.00%    100.00% |        1035      0.00%    100.00% |        6697      0.00%    100.00% |         555      0.00%    100.00% |           0      0.00%    100.00% |           0      0.00%    100.00% |           0      0.00%    100.00% |           0      0.00%    100.00%
system.ruby.hit_latency_hist::total         415241876                      
system.ruby.l0_cntrl0.Dcache.demand_hits     98965538                       # Number of cache demand hits
system.ruby.l0_cntrl0.Dcache.demand_misses       287187                       # Number of cache demand misses
system.ruby.l0_cntrl0.Dcache.demand_accesses     99252725                       # Number of cache demand accesses
system.ruby.l0_cntrl0.Icache.demand_hits    290204986                       # Number of cache demand hits
system.ruby.l0_cntrl0.Icache.demand_misses         2246                       # Number of cache demand misses
system.ruby.l0_cntrl0.Icache.demand_accesses    290207232                       # Number of cache demand accesses
system.ruby.l0_cntrl0.Zcache.demand_hits            0                       # Number of cache demand hits
system.ruby.l0_cntrl0.Zcache.demand_misses            0                       # Number of cache demand misses
system.ruby.l0_cntrl0.Zcache.demand_accesses            0                       # Number of cache demand accesses
system.ruby.l0_cntrl1.Dcache.demand_hits      6706723                       # Number of cache demand hits
system.ruby.l0_cntrl1.Dcache.demand_misses       450860                       # Number of cache demand misses
system.ruby.l0_cntrl1.Dcache.demand_accesses      7157583                       # Number of cache demand accesses
system.ruby.l0_cntrl1.Icache.demand_hits     18623716                       # Number of cache demand hits
system.ruby.l0_cntrl1.Icache.demand_misses          620                       # Number of cache demand misses
system.ruby.l0_cntrl1.Icache.demand_accesses     18624336                       # Number of cache demand accesses
system.ruby.l0_cntrl1.Zcache.demand_hits            0                       # Number of cache demand hits
system.ruby.l0_cntrl1.Zcache.demand_misses            0                       # Number of cache demand misses
system.ruby.l0_cntrl1.Zcache.demand_accesses            0                       # Number of cache demand accesses
system.ruby.l1_cntrl0.cache.demand_hits           134                       # Number of cache demand hits
system.ruby.l1_cntrl0.cache.demand_misses       289299                       # Number of cache demand misses
system.ruby.l1_cntrl0.cache.demand_accesses       289433                       # Number of cache demand accesses
system.ruby.l1_cntrl1.cache.demand_hits         37962                       # Number of cache demand hits
system.ruby.l1_cntrl1.cache.demand_misses       413518                       # Number of cache demand misses
system.ruby.l1_cntrl1.cache.demand_accesses       451480                       # Number of cache demand accesses
system.ruby.l2_cntrl0.L2cache.demand_hits       410303                       # Number of cache demand hits
system.ruby.l2_cntrl0.L2cache.demand_misses       292514                       # Number of cache demand misses
system.ruby.l2_cntrl0.L2cache.demand_accesses       702817                       # Number of cache demand accesses
system.ruby.memctrl_clk_domain.clock             1500                       # Clock period in ticks
system.ruby.network.routers0.percent_links_utilized            0                      
system.ruby.network.routers1.percent_links_utilized            0                      
system.ruby.network.routers2.percent_links_utilized     0.186183                      
system.ruby.network.routers2.msg_count.Control::0       289299                      
system.ruby.network.routers2.msg_count.Request_Control::2         3662                      
system.ruby.network.routers2.msg_count.Response_Data::1       296606                      
system.ruby.network.routers2.msg_count.Response_Control::1       284526                      
system.ruby.network.routers2.msg_count.Response_Control::2       289298                      
system.ruby.network.routers2.msg_count.Writeback_Data::0       283967                      
system.ruby.network.routers2.msg_count.Writeback_Control::0          533                      
system.ruby.network.routers2.msg_bytes.Control::0      2314392                      
system.ruby.network.routers2.msg_bytes.Request_Control::2        29296                      
system.ruby.network.routers2.msg_bytes.Response_Data::1     21355632                      
system.ruby.network.routers2.msg_bytes.Response_Control::1      2276208                      
system.ruby.network.routers2.msg_bytes.Response_Control::2      2314384                      
system.ruby.network.routers2.msg_bytes.Writeback_Data::0     20445624                      
system.ruby.network.routers2.msg_bytes.Writeback_Control::0         4264                      
system.ruby.network.routers3.percent_links_utilized     0.166747                      
system.ruby.network.routers3.msg_count.Control::0       413518                      
system.ruby.network.routers3.msg_count.Request_Control::2           22                      
system.ruby.network.routers3.msg_count.Response_Data::1       413536                      
system.ruby.network.routers3.msg_count.Response_Control::1       409359                      
system.ruby.network.routers3.msg_count.Response_Control::2       413489                      
system.ruby.network.routers3.msg_count.Writeback_Data::0        11115                      
system.ruby.network.routers3.msg_count.Writeback_Control::0       398229                      
system.ruby.network.routers3.msg_bytes.Control::0      3308144                      
system.ruby.network.routers3.msg_bytes.Request_Control::2          176                      
system.ruby.network.routers3.msg_bytes.Response_Data::1     29774592                      
system.ruby.network.routers3.msg_bytes.Response_Control::1      3274872                      
system.ruby.network.routers3.msg_bytes.Response_Control::2      3307912                      
system.ruby.network.routers3.msg_bytes.Writeback_Data::0       800280                      
system.ruby.network.routers3.msg_bytes.Writeback_Control::0      3185832                      
system.ruby.network.routers4.percent_links_utilized     0.439179                      
system.ruby.network.routers4.msg_count.Control::0       991660                      
system.ruby.network.routers4.msg_count.Request_Control::2         3684                      
system.ruby.network.routers4.msg_count.Response_Data::1       991644                      
system.ruby.network.routers4.msg_count.Response_Control::1       693857                      
system.ruby.network.routers4.msg_count.Response_Control::2       702787                      
system.ruby.network.routers4.msg_count.Writeback_Data::0       295082                      
system.ruby.network.routers4.msg_count.Writeback_Control::0       398762                      
system.ruby.network.routers4.msg_bytes.Control::0      7933280                      
system.ruby.network.routers4.msg_bytes.Request_Control::2        29472                      
system.ruby.network.routers4.msg_bytes.Response_Data::1     71398368                      
system.ruby.network.routers4.msg_bytes.Response_Control::1      5550856                      
system.ruby.network.routers4.msg_bytes.Response_Control::2      5622296                      
system.ruby.network.routers4.msg_bytes.Writeback_Data::0     21245904                      
system.ruby.network.routers4.msg_bytes.Writeback_Control::0      3190096                      
system.ruby.network.routers5.percent_links_utilized     0.088269                      
system.ruby.network.routers5.msg_count.Control::0       288843                      
system.ruby.network.routers5.msg_count.Response_Data::1       288843                      
system.ruby.network.routers5.msg_bytes.Control::0      2310744                      
system.ruby.network.routers5.msg_bytes.Response_Data::1     20796696                      
system.ruby.network.routers6.percent_links_utilized     0.146730                      
system.ruby.network.routers6.msg_count.Control::0       991660                      
system.ruby.network.routers6.msg_count.Request_Control::2         3684                      
system.ruby.network.routers6.msg_count.Response_Data::1       995315                      
system.ruby.network.routers6.msg_count.Response_Control::1       693871                      
system.ruby.network.routers6.msg_count.Response_Control::2       702787                      
system.ruby.network.routers6.msg_count.Writeback_Data::0       295082                      
system.ruby.network.routers6.msg_count.Writeback_Control::0       398762                      
system.ruby.network.routers6.msg_bytes.Control::0      7933280                      
system.ruby.network.routers6.msg_bytes.Request_Control::2        29472                      
system.ruby.network.routers6.msg_bytes.Response_Data::1     71662680                      
system.ruby.network.routers6.msg_bytes.Response_Control::1      5550968                      
system.ruby.network.routers6.msg_bytes.Response_Control::2      5622296                      
system.ruby.network.routers6.msg_bytes.Writeback_Data::0     21245904                      
system.ruby.network.routers6.msg_bytes.Writeback_Control::0      3190096                      
system.ruby.network.msg_count.Control         2974980                      
system.ruby.network.msg_count.Request_Control        11052                      
system.ruby.network.msg_count.Response_Data      2985944                      
system.ruby.network.msg_count.Response_Control      4189974                      
system.ruby.network.msg_count.Writeback_Data       885246                      
system.ruby.network.msg_count.Writeback_Control      1196286                      
system.ruby.network.msg_byte.Control         23799840                      
system.ruby.network.msg_byte.Request_Control        88416                      
system.ruby.network.msg_byte.Response_Data    214987968                      
system.ruby.network.msg_byte.Response_Control     33519792                      
system.ruby.network.msg_byte.Writeback_Data     63737712                      
system.ruby.network.msg_byte.Writeback_Control      9570288                      
system.ruby.network.routers0.throttle0.link_utilization            0                      
system.ruby.network.routers0.throttle1.link_utilization            0                      
system.ruby.network.routers1.throttle0.link_utilization            0                      
system.ruby.network.routers1.throttle1.link_utilization            0                      
system.ruby.network.routers2.throttle0.link_utilization     0.176742                      
system.ruby.network.routers2.throttle0.msg_count.Request_Control::2         3662                      
system.ruby.network.routers2.throttle0.msg_count.Response_Data::1       289287                      
system.ruby.network.routers2.throttle0.msg_count.Response_Control::1       284524                      
system.ruby.network.routers2.throttle0.msg_bytes.Request_Control::2        29296                      
system.ruby.network.routers2.throttle0.msg_bytes.Response_Data::1     20828664                      
system.ruby.network.routers2.throttle0.msg_bytes.Response_Control::1      2276192                      
system.ruby.network.routers2.throttle1.link_utilization     0.195624                      
system.ruby.network.routers2.throttle1.msg_count.Control::0       289299                      
system.ruby.network.routers2.throttle1.msg_count.Response_Data::1         7319                      
system.ruby.network.routers2.throttle1.msg_count.Response_Control::1            2                      
system.ruby.network.routers2.throttle1.msg_count.Response_Control::2       289298                      
system.ruby.network.routers2.throttle1.msg_count.Writeback_Data::0       283967                      
system.ruby.network.routers2.throttle1.msg_count.Writeback_Control::0          533                      
system.ruby.network.routers2.throttle1.msg_bytes.Control::0      2314392                      
system.ruby.network.routers2.throttle1.msg_bytes.Response_Data::1       526968                      
system.ruby.network.routers2.throttle1.msg_bytes.Response_Control::1           16                      
system.ruby.network.routers2.throttle1.msg_bytes.Response_Control::2      2314384                      
system.ruby.network.routers2.throttle1.msg_bytes.Writeback_Data::0     20445624                      
system.ruby.network.routers2.throttle1.msg_bytes.Writeback_Control::0         4264                      
system.ruby.network.routers3.throttle0.link_utilization     0.252484                      
system.ruby.network.routers3.throttle0.msg_count.Request_Control::2           22                      
system.ruby.network.routers3.throttle0.msg_count.Response_Data::1       413517                      
system.ruby.network.routers3.throttle0.msg_count.Response_Control::1       409347                      
system.ruby.network.routers3.throttle0.msg_bytes.Request_Control::2          176                      
system.ruby.network.routers3.throttle0.msg_bytes.Response_Data::1     29773224                      
system.ruby.network.routers3.throttle0.msg_bytes.Response_Control::1      3274776                      
system.ruby.network.routers3.throttle1.link_utilization     0.081010                      
system.ruby.network.routers3.throttle1.msg_count.Control::0       413518                      
system.ruby.network.routers3.throttle1.msg_count.Response_Data::1           19                      
system.ruby.network.routers3.throttle1.msg_count.Response_Control::1           12                      
system.ruby.network.routers3.throttle1.msg_count.Response_Control::2       413489                      
system.ruby.network.routers3.throttle1.msg_count.Writeback_Data::0        11115                      
system.ruby.network.routers3.throttle1.msg_count.Writeback_Control::0       398229                      
system.ruby.network.routers3.throttle1.msg_bytes.Control::0      3308144                      
system.ruby.network.routers3.throttle1.msg_bytes.Response_Data::1         1368                      
system.ruby.network.routers3.throttle1.msg_bytes.Response_Control::1           96                      
system.ruby.network.routers3.throttle1.msg_bytes.Response_Control::2      3307912                      
system.ruby.network.routers3.throttle1.msg_bytes.Writeback_Data::0       800280                      
system.ruby.network.routers3.throttle1.msg_bytes.Writeback_Control::0      3185832                      
system.ruby.network.routers4.throttle0.link_utilization     0.433498                      
system.ruby.network.routers4.throttle0.msg_count.Control::0       702817                      
system.ruby.network.routers4.throttle0.msg_count.Response_Data::1       292511                      
system.ruby.network.routers4.throttle0.msg_count.Response_Control::2       702787                      
system.ruby.network.routers4.throttle0.msg_count.Writeback_Data::0       295082                      
system.ruby.network.routers4.throttle0.msg_count.Writeback_Control::0       398762                      
system.ruby.network.routers4.throttle0.msg_bytes.Control::0      5622536                      
system.ruby.network.routers4.throttle0.msg_bytes.Response_Data::1     21060792                      
system.ruby.network.routers4.throttle0.msg_bytes.Response_Control::2      5622296                      
system.ruby.network.routers4.throttle0.msg_bytes.Writeback_Data::0     21245904                      
system.ruby.network.routers4.throttle0.msg_bytes.Writeback_Control::0      3190096                      
system.ruby.network.routers4.throttle1.link_utilization     0.444859                      
system.ruby.network.routers4.throttle1.msg_count.Control::0       288843                      
system.ruby.network.routers4.throttle1.msg_count.Request_Control::2         3684                      
system.ruby.network.routers4.throttle1.msg_count.Response_Data::1       699133                      
system.ruby.network.routers4.throttle1.msg_count.Response_Control::1       693857                      
system.ruby.network.routers4.throttle1.msg_bytes.Control::0      2310744                      
system.ruby.network.routers4.throttle1.msg_bytes.Request_Control::2        29472                      
system.ruby.network.routers4.throttle1.msg_bytes.Response_Data::1     50337576                      
system.ruby.network.routers4.throttle1.msg_bytes.Response_Control::1      5550856                      
system.ruby.network.routers5.throttle0.link_utilization     0.017654                      
system.ruby.network.routers5.throttle0.msg_count.Control::0       288843                      
system.ruby.network.routers5.throttle0.msg_bytes.Control::0      2310744                      
system.ruby.network.routers5.throttle1.link_utilization     0.158884                      
system.ruby.network.routers5.throttle1.msg_count.Response_Data::1       288843                      
system.ruby.network.routers5.throttle1.msg_bytes.Response_Data::1     20796696                      
system.ruby.network.routers6.throttle0.link_utilization            0                      
system.ruby.network.routers6.throttle1.link_utilization            0                      
system.ruby.network.routers6.throttle2.link_utilization     0.176742                      
system.ruby.network.routers6.throttle2.msg_count.Request_Control::2         3662                      
system.ruby.network.routers6.throttle2.msg_count.Response_Data::1       289287                      
system.ruby.network.routers6.throttle2.msg_count.Response_Control::1       284524                      
system.ruby.network.routers6.throttle2.msg_bytes.Request_Control::2        29296                      
system.ruby.network.routers6.throttle2.msg_bytes.Response_Data::1     20828664                      
system.ruby.network.routers6.throttle2.msg_bytes.Response_Control::1      2276192                      
system.ruby.network.routers6.throttle3.link_utilization     0.252484                      
system.ruby.network.routers6.throttle3.msg_count.Request_Control::2           22                      
system.ruby.network.routers6.throttle3.msg_count.Response_Data::1       413517                      
system.ruby.network.routers6.throttle3.msg_count.Response_Control::1       409347                      
system.ruby.network.routers6.throttle3.msg_bytes.Request_Control::2          176                      
system.ruby.network.routers6.throttle3.msg_bytes.Response_Data::1     29773224                      
system.ruby.network.routers6.throttle3.msg_bytes.Response_Control::1      3274776                      
system.ruby.network.routers6.throttle4.link_utilization     0.433498                      
system.ruby.network.routers6.throttle4.msg_count.Control::0       702817                      
system.ruby.network.routers6.throttle4.msg_count.Response_Data::1       292511                      
system.ruby.network.routers6.throttle4.msg_count.Response_Control::2       702787                      
system.ruby.network.routers6.throttle4.msg_count.Writeback_Data::0       295082                      
system.ruby.network.routers6.throttle4.msg_count.Writeback_Control::0       398762                      
system.ruby.network.routers6.throttle4.msg_bytes.Control::0      5622536                      
system.ruby.network.routers6.throttle4.msg_bytes.Response_Data::1     21060792                      
system.ruby.network.routers6.throttle4.msg_bytes.Response_Control::2      5622296                      
system.ruby.network.routers6.throttle4.msg_bytes.Writeback_Data::0     21245904                      
system.ruby.network.routers6.throttle4.msg_bytes.Writeback_Control::0      3190096                      
system.ruby.network.routers6.throttle5.link_utilization     0.017654                      
system.ruby.network.routers6.throttle5.msg_count.Control::0       288843                      
system.ruby.network.routers6.throttle5.msg_bytes.Control::0      2310744                      
system.ruby.delayVCHist.vnet_0::bucket_size            2                       # delay histogram for vnet_0
system.ruby.delayVCHist.vnet_0::max_bucket           19                       # delay histogram for vnet_0
system.ruby.delayVCHist.vnet_0::samples       2099448                       # delay histogram for vnet_0
system.ruby.delayVCHist.vnet_0::mean         1.124452                       # delay histogram for vnet_0
system.ruby.delayVCHist.vnet_0::stdev        2.780499                       # delay histogram for vnet_0
system.ruby.delayVCHist.vnet_0           |     1804339     85.94%     85.94% |          26      0.00%     85.94% |           0      0.00%     85.94% |           0      0.00%     85.94% |      295081     14.06%    100.00% |           1      0.00%    100.00% |           0      0.00%    100.00% |           0      0.00%    100.00% |           0      0.00%    100.00% |           1      0.00%    100.00% # delay histogram for vnet_0
system.ruby.delayVCHist.vnet_0::total         2099448                       # delay histogram for vnet_0
system.ruby.delayVCHist.vnet_1::bucket_size            1                       # delay histogram for vnet_1
system.ruby.delayVCHist.vnet_1::max_bucket            9                       # delay histogram for vnet_1
system.ruby.delayVCHist.vnet_1::samples       2430099                       # delay histogram for vnet_1
system.ruby.delayVCHist.vnet_1::mean         0.012075                       # delay histogram for vnet_1
system.ruby.delayVCHist.vnet_1::stdev        0.310574                       # delay histogram for vnet_1
system.ruby.delayVCHist.vnet_1           |     2426431     99.85%     99.85% |           0      0.00%     99.85% |           0      0.00%     99.85% |           0      0.00%     99.85% |           0      0.00%     99.85% |           0      0.00%     99.85% |           0      0.00%     99.85% |           0      0.00%     99.85% |        3668      0.15%    100.00% |           0      0.00%    100.00% # delay histogram for vnet_1
system.ruby.delayVCHist.vnet_1::total         2430099                       # delay histogram for vnet_1
system.ruby.delayVCHist.vnet_2::bucket_size            2                       # delay histogram for vnet_2
system.ruby.delayVCHist.vnet_2::max_bucket           19                       # delay histogram for vnet_2
system.ruby.delayVCHist.vnet_2::samples         15745                       # delay histogram for vnet_2
system.ruby.delayVCHist.vnet_2::mean         0.110511                       # delay histogram for vnet_2
system.ruby.delayVCHist.vnet_2::stdev        0.741556                       # delay histogram for vnet_2
system.ruby.delayVCHist.vnet_2           |       15399     97.80%     97.80% |           0      0.00%     97.80% |         345      2.19%     99.99% |           0      0.00%     99.99% |           0      0.00%     99.99% |           0      0.00%     99.99% |           0      0.00%     99.99% |           1      0.01%    100.00% |           0      0.00%    100.00% |           0      0.00%    100.00% # delay histogram for vnet_2
system.ruby.delayVCHist.vnet_2::total           15745                       # delay histogram for vnet_2
system.ruby.LD.latency_hist::bucket_size          128                      
system.ruby.LD.latency_hist::max_bucket          1279                      
system.ruby.LD.latency_hist::samples         61083269                      
system.ruby.LD.latency_hist::mean            1.139965                      
system.ruby.LD.latency_hist::gmean           1.021876                      
system.ruby.LD.latency_hist::stdev           1.700510                      
system.ruby.LD.latency_hist              |    61083157    100.00%    100.00% |         106      0.00%    100.00% |           0      0.00%    100.00% |           0      0.00%    100.00% |           4      0.00%    100.00% |           2      0.00%    100.00% |           0      0.00%    100.00% |           0      0.00%    100.00% |           0      0.00%    100.00% |           0      0.00%    100.00%
system.ruby.LD.latency_hist::total           61083269                      
system.ruby.LD.hit_latency_hist::bucket_size          128                      
system.ruby.LD.hit_latency_hist::max_bucket         1279                      
system.ruby.LD.hit_latency_hist::samples     61083269                      
system.ruby.LD.hit_latency_hist::mean        1.139965                      
system.ruby.LD.hit_latency_hist::gmean       1.021876                      
system.ruby.LD.hit_latency_hist::stdev       1.700510                      
system.ruby.LD.hit_latency_hist          |    61083157    100.00%    100.00% |         106      0.00%    100.00% |           0      0.00%    100.00% |           0      0.00%    100.00% |           4      0.00%    100.00% |           2      0.00%    100.00% |           0      0.00%    100.00% |           0      0.00%    100.00% |           0      0.00%    100.00% |           0      0.00%    100.00%
system.ruby.LD.hit_latency_hist::total       61083269                      
system.ruby.ST.latency_hist::bucket_size          128                      
system.ruby.ST.latency_hist::max_bucket          1279                      
system.ruby.ST.latency_hist::samples         31744107                      
system.ruby.ST.latency_hist::mean            2.232315                      
system.ruby.ST.latency_hist::gmean           1.045001                      
system.ruby.ST.latency_hist::stdev          14.865888                      
system.ruby.ST.latency_hist              |    31691983     99.84%     99.84% |       42699      0.13%     99.97% |        1155      0.00%     99.97% |        1034      0.00%     99.98% |        6686      0.02%    100.00% |         550      0.00%    100.00% |           0      0.00%    100.00% |           0      0.00%    100.00% |           0      0.00%    100.00% |           0      0.00%    100.00%
system.ruby.ST.latency_hist::total           31744107                      
system.ruby.ST.hit_latency_hist::bucket_size          128                      
system.ruby.ST.hit_latency_hist::max_bucket         1279                      
system.ruby.ST.hit_latency_hist::samples     31744107                      
system.ruby.ST.hit_latency_hist::mean        2.232315                      
system.ruby.ST.hit_latency_hist::gmean       1.045001                      
system.ruby.ST.hit_latency_hist::stdev      14.865888                      
system.ruby.ST.hit_latency_hist          |    31691983     99.84%     99.84% |       42699      0.13%     99.97% |        1155      0.00%     99.97% |        1034      0.00%     99.98% |        6686      0.02%    100.00% |         550      0.00%    100.00% |           0      0.00%    100.00% |           0      0.00%    100.00% |           0      0.00%    100.00% |           0      0.00%    100.00%
system.ruby.ST.hit_latency_hist::total       31744107                      
system.ruby.IFETCH.latency_hist::bucket_size          128                      
system.ruby.IFETCH.latency_hist::max_bucket         1279                      
system.ruby.IFETCH.latency_hist::samples    308831568                      
system.ruby.IFETCH.latency_hist::mean        1.000606                      
system.ruby.IFETCH.latency_hist::gmean       1.000035                      
system.ruby.IFETCH.latency_hist::stdev       0.272173                      
system.ruby.IFETCH.latency_hist          |   308831291    100.00%    100.00% |         266      0.00%    100.00% |           0      0.00%    100.00% |           1      0.00%    100.00% |           7      0.00%    100.00% |           3      0.00%    100.00% |           0      0.00%    100.00% |           0      0.00%    100.00% |           0      0.00%    100.00% |           0      0.00%    100.00%
system.ruby.IFETCH.latency_hist::total      308831568                      
system.ruby.IFETCH.hit_latency_hist::bucket_size          128                      
system.ruby.IFETCH.hit_latency_hist::max_bucket         1279                      
system.ruby.IFETCH.hit_latency_hist::samples    308831568                      
system.ruby.IFETCH.hit_latency_hist::mean     1.000606                      
system.ruby.IFETCH.hit_latency_hist::gmean     1.000035                      
system.ruby.IFETCH.hit_latency_hist::stdev     0.272173                      
system.ruby.IFETCH.hit_latency_hist      |   308831291    100.00%    100.00% |         266      0.00%    100.00% |           0      0.00%    100.00% |           1      0.00%    100.00% |           7      0.00%    100.00% |           3      0.00%    100.00% |           0      0.00%    100.00% |           0      0.00%    100.00% |           0      0.00%    100.00% |           0      0.00%    100.00%
system.ruby.IFETCH.hit_latency_hist::total    308831568                      
system.ruby.RMW_Read.latency_hist::bucket_size            4                      
system.ruby.RMW_Read.latency_hist::max_bucket           39                      
system.ruby.RMW_Read.latency_hist::samples          370                      
system.ruby.RMW_Read.latency_hist::mean      1.548649                      
system.ruby.RMW_Read.latency_hist::gmean     1.072940                      
system.ruby.RMW_Read.latency_hist::stdev     3.761027                      
system.ruby.RMW_Read.latency_hist        |         362     97.84%     97.84% |           0      0.00%     97.84% |           0      0.00%     97.84% |           0      0.00%     97.84% |           0      0.00%     97.84% |           3      0.81%     98.65% |           1      0.27%     98.92% |           2      0.54%     99.46% |           2      0.54%    100.00% |           0      0.00%    100.00%
system.ruby.RMW_Read.latency_hist::total          370                      
system.ruby.RMW_Read.hit_latency_hist::bucket_size            4                      
system.ruby.RMW_Read.hit_latency_hist::max_bucket           39                      
system.ruby.RMW_Read.hit_latency_hist::samples          370                      
system.ruby.RMW_Read.hit_latency_hist::mean     1.548649                      
system.ruby.RMW_Read.hit_latency_hist::gmean     1.072940                      
system.ruby.RMW_Read.hit_latency_hist::stdev     3.761027                      
system.ruby.RMW_Read.hit_latency_hist    |         362     97.84%     97.84% |           0      0.00%     97.84% |           0      0.00%     97.84% |           0      0.00%     97.84% |           0      0.00%     97.84% |           3      0.81%     98.65% |           1      0.27%     98.92% |           2      0.54%     99.46% |           2      0.54%    100.00% |           0      0.00%    100.00%
system.ruby.RMW_Read.hit_latency_hist::total          370                      
system.ruby.Locked_RMW_Read.latency_hist::bucket_size           16                      
system.ruby.Locked_RMW_Read.latency_hist::max_bucket          159                      
system.ruby.Locked_RMW_Read.latency_hist::samples      6791281                      
system.ruby.Locked_RMW_Read.latency_hist::mean     1.000303                      
system.ruby.Locked_RMW_Read.latency_hist::gmean     1.000037                      
system.ruby.Locked_RMW_Read.latency_hist::stdev     0.105763                      
system.ruby.Locked_RMW_Read.latency_hist |     6791204    100.00%    100.00% |          75      0.00%    100.00% |           0      0.00%    100.00% |           0      0.00%    100.00% |           0      0.00%    100.00% |           0      0.00%    100.00% |           0      0.00%    100.00% |           1      0.00%    100.00% |           1      0.00%    100.00% |           0      0.00%    100.00%
system.ruby.Locked_RMW_Read.latency_hist::total      6791281                      
system.ruby.Locked_RMW_Read.hit_latency_hist::bucket_size           16                      
system.ruby.Locked_RMW_Read.hit_latency_hist::max_bucket          159                      
system.ruby.Locked_RMW_Read.hit_latency_hist::samples      6791281                      
system.ruby.Locked_RMW_Read.hit_latency_hist::mean     1.000303                      
system.ruby.Locked_RMW_Read.hit_latency_hist::gmean     1.000037                      
system.ruby.Locked_RMW_Read.hit_latency_hist::stdev     0.105763                      
system.ruby.Locked_RMW_Read.hit_latency_hist |     6791204    100.00%    100.00% |          75      0.00%    100.00% |           0      0.00%    100.00% |           0      0.00%    100.00% |           0      0.00%    100.00% |           0      0.00%    100.00% |           0      0.00%    100.00% |           1      0.00%    100.00% |           1      0.00%    100.00% |           0      0.00%    100.00%
system.ruby.Locked_RMW_Read.hit_latency_hist::total      6791281                      
system.ruby.Locked_RMW_Write.latency_hist::bucket_size            1                      
system.ruby.Locked_RMW_Write.latency_hist::max_bucket            9                      
system.ruby.Locked_RMW_Write.latency_hist::samples      6791281                      
system.ruby.Locked_RMW_Write.latency_hist::mean            1                      
system.ruby.Locked_RMW_Write.latency_hist::gmean            1                      
[...]
system.ruby.L0Cache_Controller.Ifetch::total    308831568                      
system.ruby.L0Cache_Controller.Store     |    45286475     99.91%     99.91% |       40564      0.09%    100.00%
system.ruby.L0Cache_Controller.Store::total     45327039                      
system.ruby.L0Cache_Controller.Inv       |        2104     17.44%     17.44% |        9957     82.56%    100.00%
system.ruby.L0Cache_Controller.Inv::total        12061                      
system.ruby.L0Cache_Controller.L0_Replacement |      286468     39.37%     39.37% |      441071     60.63%    100.00%
system.ruby.L0Cache_Controller.L0_Replacement::total       727539                      
system.ruby.L0Cache_Controller.Data      |          22      0.59%      0.59% |        3688     99.41%    100.00%
system.ruby.L0Cache_Controller.Data::total         3710                      
system.ruby.L0Cache_Controller.Data_Exclusive |      289411     39.26%     39.26% |      447792     60.74%    100.00%
system.ruby.L0Cache_Controller.Data_Exclusive::total       737203                      
system.ruby.L0Cache_Controller.NP.Load   |         756      0.17%      0.17% |      449579     99.83%    100.00%
system.ruby.L0Cache_Controller.NP.Load::total       450335                      
system.ruby.L0Cache_Controller.NP.Ifetch |        2246     78.37%     78.37% |         620     21.63%    100.00%
system.ruby.L0Cache_Controller.NP.Ifetch::total         2866                      
system.ruby.L0Cache_Controller.NP.Store  |      286419     99.56%     99.56% |        1280      0.44%    100.00%
system.ruby.L0Cache_Controller.NP.Store::total       287699                      
system.ruby.L0Cache_Controller.NP.Inv    |           0      0.00%      0.00% |          64    100.00%    100.00%
system.ruby.L0Cache_Controller.NP.Inv::total           64                      
system.ruby.L0Cache_Controller.S.Load    |     3341953     99.11%     99.11% |       29916      0.89%    100.00%
system.ruby.L0Cache_Controller.S.Load::total      3371869                      
system.ruby.L0Cache_Controller.S.Ifetch  |          24     12.63%     12.63% |         166     87.37%    100.00%
system.ruby.L0Cache_Controller.S.Ifetch::total          190                      
system.ruby.L0Cache_Controller.S.Store   |          12     92.31%     92.31% |           1      7.69%    100.00%
system.ruby.L0Cache_Controller.S.Store::total           13                      
system.ruby.L0Cache_Controller.S.Inv     |           2      9.52%      9.52% |          19     90.48%    100.00%
system.ruby.L0Cache_Controller.S.Inv::total           21                      
system.ruby.L0Cache_Controller.S.L0_Replacement |           5      0.15%      0.15% |        3282     99.85%    100.00%
system.ruby.L0Cache_Controller.S.L0_Replacement::total         3287                      
system.ruby.L0Cache_Controller.E.Load    |     6705666     50.33%     50.33% |     6617331     49.67%    100.00%
system.ruby.L0Cache_Controller.E.Load::total     13322997                      
system.ruby.L0Cache_Controller.E.Ifetch  |   290204962     93.97%     93.97% |    18623550      6.03%    100.00%
system.ruby.L0Cache_Controller.E.Ifetch::total    308828512                      
system.ruby.L0Cache_Controller.E.Store   |         330     73.17%     73.17% |         121     26.83%    100.00%
system.ruby.L0Cache_Controller.E.Store::total          451                      
system.ruby.L0Cache_Controller.E.Inv     |        1356     12.20%     12.20% |        9757     87.80%    100.00%
system.ruby.L0Cache_Controller.E.Inv::total        11113                      
system.ruby.L0Cache_Controller.E.L0_Replacement |         724      0.17%      0.17% |      436539     99.83%    100.00%
system.ruby.L0Cache_Controller.E.L0_Replacement::total       437263                      
system.ruby.L0Cache_Controller.M.Load    |    43917875     99.95%     99.95% |       20193      0.05%    100.00%
system.ruby.L0Cache_Controller.M.Load::total     43938068                      
system.ruby.L0Cache_Controller.M.Store   |    44999714     99.91%     99.91% |       39162      0.09%    100.00%
system.ruby.L0Cache_Controller.M.Store::total     45038876                      
system.ruby.L0Cache_Controller.M.Inv     |         746     86.44%     86.44% |         117     13.56%    100.00%
system.ruby.L0Cache_Controller.M.Inv::total          863                      
system.ruby.L0Cache_Controller.M.L0_Replacement |      285739     99.56%     99.56% |        1250      0.44%    100.00%
system.ruby.L0Cache_Controller.M.L0_Replacement::total       286989                      
system.ruby.L0Cache_Controller.IS.Data   |          22      0.59%      0.59% |        3688     99.41%    100.00%
system.ruby.L0Cache_Controller.IS.Data::total         3710                      
system.ruby.L0Cache_Controller.IS.Data_Exclusive |        2980      0.66%      0.66% |      446511     99.34%    100.00%
system.ruby.L0Cache_Controller.IS.Data_Exclusive::total       449491                      
system.ruby.L0Cache_Controller.IM.Data_Exclusive |      286419     99.56%     99.56% |        1280      0.44%    100.00%
system.ruby.L0Cache_Controller.IM.Data_Exclusive::total       287699                      
system.ruby.L0Cache_Controller.SM.Data_Exclusive |          12     92.31%     92.31% |           1      7.69%    100.00%
system.ruby.L0Cache_Controller.SM.Data_Exclusive::total           13                      
system.ruby.L1Cache_Controller.Load      |        3002      0.66%      0.66% |      450199     99.34%    100.00%
system.ruby.L1Cache_Controller.Load::total       453201                      
system.ruby.L1Cache_Controller.Store     |      286431     99.55%     99.55% |        1281      0.45%    100.00%
system.ruby.L1Cache_Controller.Store::total       287712                      
system.ruby.L1Cache_Controller.WriteBack |      286463     39.55%     39.55% |      437789     60.45%    100.00%
system.ruby.L1Cache_Controller.WriteBack::total       724252                      
system.ruby.L1Cache_Controller.L0_DataAck |         746     86.44%     86.44% |         117     13.56%    100.00%
system.ruby.L1Cache_Controller.L0_DataAck::total          863                      
system.ruby.L1Cache_Controller.Inv       |           2     14.29%     14.29% |          12     85.71%    100.00%
system.ruby.L1Cache_Controller.Inv::total           14                      
system.ruby.L1Cache_Controller.L0_Invalidate_Own |        3544     15.13%     15.13% |       19884     84.87%    100.00%
system.ruby.L1Cache_Controller.L0_Invalidate_Own::total        23428                      
system.ruby.L1Cache_Controller.L0_Invalidate_Else |         664     95.68%     95.68% |          30      4.32%    100.00%
system.ruby.L1Cache_Controller.L0_Invalidate_Else::total          694                      
system.ruby.L1Cache_Controller.L1_Replacement |      285188     41.06%     41.06% |      409421     58.94%    100.00%
system.ruby.L1Cache_Controller.L1_Replacement::total       694609                      
system.ruby.L1Cache_Controller.Fwd_GETX  |           1     50.00%     50.00% |           1     50.00%    100.00%
system.ruby.L1Cache_Controller.Fwd_GETX::total            2                      
system.ruby.L1Cache_Controller.Fwd_GETS  |        3659     99.75%     99.75% |           9      0.25%    100.00%
system.ruby.L1Cache_Controller.Fwd_GETS::total         3668                      
system.ruby.L1Cache_Controller.Data      |           0      0.00%      0.00% |           1    100.00%    100.00%
system.ruby.L1Cache_Controller.Data::total            1                      
system.ruby.L1Cache_Controller.Data_Exclusive |        2868      0.70%      0.70% |      408549     99.30%    100.00%
system.ruby.L1Cache_Controller.Data_Exclusive::total       411417                      
system.ruby.L1Cache_Controller.DataS_fromL1 |           9      0.25%      0.25% |        3659     99.75%    100.00%
system.ruby.L1Cache_Controller.DataS_fromL1::total         3668                      
system.ruby.L1Cache_Controller.Data_all_Acks |      286410     99.55%     99.55% |        1308      0.45%    100.00%
system.ruby.L1Cache_Controller.Data_all_Acks::total       287718                      
system.ruby.L1Cache_Controller.L0_Ack    |        1358     12.13%     12.13% |        9840     87.87%    100.00%
system.ruby.L1Cache_Controller.L0_Ack::total        11198                      
system.ruby.L1Cache_Controller.Ack       |          12     92.31%     92.31% |           1      7.69%    100.00%
system.ruby.L1Cache_Controller.Ack::total           13                      
system.ruby.L1Cache_Controller.Ack_all   |          12     85.71%     85.71% |           2     14.29%    100.00%
system.ruby.L1Cache_Controller.Ack_all::total           14                      
system.ruby.L1Cache_Controller.WB_Ack    |      284500     41.00%     41.00% |      409344     59.00%    100.00%
system.ruby.L1Cache_Controller.WB_Ack::total       693844                      
system.ruby.L1Cache_Controller.NP.Load   |        2877      0.69%      0.69% |      412237     99.31%    100.00%
system.ruby.L1Cache_Controller.NP.Load::total       415114                      
system.ruby.L1Cache_Controller.NP.Store  |      286409     99.56%     99.56% |        1280      0.44%    100.00%
system.ruby.L1Cache_Controller.NP.Store::total       287689                      
system.ruby.L1Cache_Controller.I.Load    |           1    100.00%    100.00% |           0      0.00%    100.00%
system.ruby.L1Cache_Controller.I.Load::total            1                      
system.ruby.L1Cache_Controller.S.Load    |           1    100.00%    100.00% |           0      0.00%    100.00%
system.ruby.L1Cache_Controller.S.Load::total            1                      
system.ruby.L1Cache_Controller.S.Store   |          12     92.31%     92.31% |           1      7.69%    100.00%
system.ruby.L1Cache_Controller.S.Store::total           13                      
system.ruby.L1Cache_Controller.S.L0_Invalidate_Own |           0      0.00%      0.00% |          77    100.00%    100.00%
system.ruby.L1Cache_Controller.S.L0_Invalidate_Own::total           77                      
system.ruby.L1Cache_Controller.S.L0_Invalidate_Else |           2     25.00%     25.00% |           6     75.00%    100.00%
system.ruby.L1Cache_Controller.S.L0_Invalidate_Else::total            8                      
system.ruby.L1Cache_Controller.SS.Load   |          11    100.00%    100.00% |           0      0.00%    100.00%
system.ruby.L1Cache_Controller.SS.Load::total           11                      
system.ruby.L1Cache_Controller.SS.Inv    |           2     14.29%     14.29% |          12     85.71%    100.00%
system.ruby.L1Cache_Controller.SS.Inv::total           14                      
system.ruby.L1Cache_Controller.SS.L1_Replacement |         688     89.93%     89.93% |          77     10.07%    100.00%
system.ruby.L1Cache_Controller.SS.L1_Replacement::total          765                      
system.ruby.L1Cache_Controller.E.WriteBack |         758      0.19%      0.19% |      398653     99.81%    100.00%
system.ruby.L1Cache_Controller.E.WriteBack::total       399411                      
system.ruby.L1Cache_Controller.E.L0_Invalidate_Own |        1519     13.43%     13.43% |        9794     86.57%    100.00%
system.ruby.L1Cache_Controller.E.L0_Invalidate_Own::total        11313                      
system.ruby.L1Cache_Controller.E.L0_Invalidate_Else |           7     58.33%     58.33% |           5     41.67%    100.00%
system.ruby.L1Cache_Controller.E.L0_Invalidate_Else::total           12                      
system.ruby.L1Cache_Controller.EE.L1_Replacement |        1310     11.92%     11.92% |        9683     88.08%    100.00%
system.ruby.L1Cache_Controller.EE.L1_Replacement::total        10993                      
system.ruby.L1Cache_Controller.EE.Fwd_GETS |           6     60.00%     60.00% |           4     40.00%    100.00%
system.ruby.L1Cache_Controller.EE.Fwd_GETS::total           10                      
system.ruby.L1Cache_Controller.M.WriteBack |      285705     87.95%     87.95% |       39136     12.05%    100.00%
system.ruby.L1Cache_Controller.M.WriteBack::total       324841                      
system.ruby.L1Cache_Controller.M.L0_Invalidate_Own |         253     78.09%     78.09% |          71     21.91%    100.00%
system.ruby.L1Cache_Controller.M.L0_Invalidate_Own::total          324                      
system.ruby.L1Cache_Controller.M.L0_Invalidate_Else |         323     98.78%     98.78% |           4      1.22%    100.00%
system.ruby.L1Cache_Controller.M.L0_Invalidate_Else::total          327                      
system.ruby.L1Cache_Controller.MM.Load   |         112      0.29%      0.29% |       37962     99.71%    100.00%
system.ruby.L1Cache_Controller.MM.Load::total        38074                      
system.ruby.L1Cache_Controller.MM.Store  |          10    100.00%    100.00% |           0      0.00%    100.00%
system.ruby.L1Cache_Controller.MM.Store::total           10                      
system.ruby.L1Cache_Controller.MM.L1_Replacement |      283190     41.47%     41.47% |      399661     58.53%    100.00%
system.ruby.L1Cache_Controller.MM.L1_Replacement::total       682851                      
system.ruby.L1Cache_Controller.MM.Fwd_GETX |           1     50.00%     50.00% |           1     50.00%    100.00%
system.ruby.L1Cache_Controller.MM.Fwd_GETX::total            2                      
system.ruby.L1Cache_Controller.MM.Fwd_GETS |        3653     99.86%     99.86% |           5      0.14%    100.00%
system.ruby.L1Cache_Controller.MM.Fwd_GETS::total         3658                      
system.ruby.L1Cache_Controller.IS.Data_Exclusive |        2868      0.70%      0.70% |      408549     99.30%    100.00%
system.ruby.L1Cache_Controller.IS.Data_Exclusive::total       411417                      
system.ruby.L1Cache_Controller.IS.DataS_fromL1 |           9      0.25%      0.25% |        3659     99.75%    100.00%
system.ruby.L1Cache_Controller.IS.DataS_fromL1::total         3668                      
system.ruby.L1Cache_Controller.IS.Data_all_Acks |           1      3.33%      3.33% |          29     96.67%    100.00%
system.ruby.L1Cache_Controller.IS.Data_all_Acks::total           30                      
system.ruby.L1Cache_Controller.IM.Data   |           0      0.00%      0.00% |           1    100.00%    100.00%
system.ruby.L1Cache_Controller.IM.Data::total            1                      
system.ruby.L1Cache_Controller.IM.Data_all_Acks |      286409     99.56%     99.56% |        1279      0.44%    100.00%
system.ruby.L1Cache_Controller.IM.Data_all_Acks::total       287688                      
system.ruby.L1Cache_Controller.SM.Ack    |          12     92.31%     92.31% |           1      7.69%    100.00%
system.ruby.L1Cache_Controller.SM.Ack::total           13                      
system.ruby.L1Cache_Controller.SM.Ack_all |          12     85.71%     85.71% |           2     14.29%    100.00%
system.ruby.L1Cache_Controller.SM.Ack_all::total           14                      
system.ruby.L1Cache_Controller.M_I.WB_Ack |      284500     41.00%     41.00% |      409344     59.00%    100.00%
system.ruby.L1Cache_Controller.M_I.WB_Ack::total       693844                      
system.ruby.L1Cache_Controller.S_IL0.L0_Invalidate_Own |           0      0.00%      0.00% |          77    100.00%    100.00%
system.ruby.L1Cache_Controller.S_IL0.L0_Invalidate_Own::total           77                      
system.ruby.L1Cache_Controller.S_IL0.L0_Invalidate_Else |           2     25.00%     25.00% |           6     75.00%    100.00%
system.ruby.L1Cache_Controller.S_IL0.L0_Invalidate_Else::total            8                      
system.ruby.L1Cache_Controller.S_IL0.L0_Ack |           2      2.35%      2.35% |          83     97.65%    100.00%
system.ruby.L1Cache_Controller.S_IL0.L0_Ack::total           85                      
system.ruby.L1Cache_Controller.E_IL0.L0_DataAck |         210     65.22%     65.22% |         112     34.78%    100.00%
system.ruby.L1Cache_Controller.E_IL0.L0_DataAck::total          322                      
system.ruby.L1Cache_Controller.E_IL0.L0_Invalidate_Own |        1519     13.43%     13.43% |        9794     86.57%    100.00%
system.ruby.L1Cache_Controller.E_IL0.L0_Invalidate_Own::total        11313                      
system.ruby.L1Cache_Controller.E_IL0.L0_Invalidate_Else |           7     58.33%     58.33% |           5     41.67%    100.00%
system.ruby.L1Cache_Controller.E_IL0.L0_Invalidate_Else::total           12                      
system.ruby.L1Cache_Controller.E_IL0.L0_Ack |        1316     11.96%     11.96% |        9687     88.04%    100.00%
system.ruby.L1Cache_Controller.E_IL0.L0_Ack::total        11003                      
system.ruby.L1Cache_Controller.M_IL0.L0_DataAck |         536     99.08%     99.08% |           5      0.92%    100.00%
system.ruby.L1Cache_Controller.M_IL0.L0_DataAck::total          541                      
system.ruby.L1Cache_Controller.M_IL0.L0_Invalidate_Own |         253     78.09%     78.09% |          71     21.91%    100.00%
system.ruby.L1Cache_Controller.M_IL0.L0_Invalidate_Own::total          324                      
system.ruby.L1Cache_Controller.M_IL0.L0_Invalidate_Else |         323     98.78%     98.78% |           4      1.22%    100.00%
system.ruby.L1Cache_Controller.M_IL0.L0_Invalidate_Else::total          327                      
system.ruby.L1Cache_Controller.M_IL0.L0_Ack |          40     36.36%     36.36% |          70     63.64%    100.00%
system.ruby.L1Cache_Controller.M_IL0.L0_Ack::total          110                      
system.ruby.L2Cache_Controller.L1_GETS         415115      0.00%      0.00%
system.ruby.L2Cache_Controller.L1_GETX         287689      0.00%      0.00%
system.ruby.L2Cache_Controller.L1_UPGRADE           13      0.00%      0.00%
system.ruby.L2Cache_Controller.L1_PUTX         693844      0.00%      0.00%
system.ruby.L2Cache_Controller.Mem_Data        288843      0.00%      0.00%
system.ruby.L2Cache_Controller.WB_Data           3667      0.00%      0.00%
system.ruby.L2Cache_Controller.WB_Data_clean            1      0.00%      0.00%
system.ruby.L2Cache_Controller.Unblock           3668      0.00%      0.00%
system.ruby.L2Cache_Controller.Exclusive_Unblock       699119      0.00%      0.00%
system.ruby.L2Cache_Controller.NP.L1_GETS         1428      0.00%      0.00%
system.ruby.L2Cache_Controller.NP.L1_GETX       287415      0.00%      0.00%
system.ruby.L2Cache_Controller.SS.L1_GETS           28      0.00%      0.00%
system.ruby.L2Cache_Controller.SS.L1_GETX            1      0.00%      0.00%
system.ruby.L2Cache_Controller.SS.L1_UPGRADE           13      0.00%      0.00%
system.ruby.L2Cache_Controller.M.L1_GETS       409990      0.00%      0.00%
system.ruby.L2Cache_Controller.M.L1_GETX          271      0.00%      0.00%
system.ruby.L2Cache_Controller.MT.L1_GETS         3668      0.00%      0.00%
system.ruby.L2Cache_Controller.MT.L1_GETX            2      0.00%      0.00%
system.ruby.L2Cache_Controller.MT.L1_PUTX       693844      0.00%      0.00%
system.ruby.L2Cache_Controller.ISS.L1_GETS            1      0.00%      0.00%
system.ruby.L2Cache_Controller.ISS.Mem_Data         1427      0.00%      0.00%
system.ruby.L2Cache_Controller.IS.Mem_Data            1      0.00%      0.00%
system.ruby.L2Cache_Controller.IM.Mem_Data       287415      0.00%      0.00%
system.ruby.L2Cache_Controller.SS_MB.Exclusive_Unblock           14      0.00%      0.00%
system.ruby.L2Cache_Controller.MT_MB.Exclusive_Unblock       699105      0.00%      0.00%
system.ruby.L2Cache_Controller.MT_IIB.WB_Data         3667      0.00%      0.00%
system.ruby.L2Cache_Controller.MT_IIB.WB_Data_clean            1      0.00%      0.00%
system.ruby.L2Cache_Controller.MT_SB.Unblock         3668      0.00%      0.00%

---------- End Simulation Statistics   ----------
