
---------- Begin Simulation Statistics ----------
sim_seconds                                  2.907181                       # Number of seconds simulated
sim_ticks                                2907181339000                       # Number of ticks simulated
final_tick                               2907181339000                       # Number of ticks from beginning of simulation (restored from checkpoints and never reset)
sim_freq                                 1000000000000                       # Frequency of simulated ticks
host_inst_rate                                 126711                       # Simulator instruction rate (inst/s)
host_op_rate                                   350276                       # Simulator op (including micro ops) rate (op/s)
host_tick_rate                              211621338                       # Simulator tick rate (ticks/s)
host_mem_usage                                3426172                       # Number of bytes of host memory used
host_seconds                                 13737.66                       # Real time elapsed on the host
sim_insts                                  1740716911                       # Number of instructions simulated
sim_ops                                    4811964904                       # Number of ops (including micro ops) simulated
system.voltage_domain.voltage                       1                       # Voltage in Volts
system.clk_domain.clock                          1000                       # Clock period in ticks
system.mem_ctrls.bytes_read::ruby.dir_cntrl0    260082496                       # Number of bytes read from this memory
system.mem_ctrls.bytes_read::total          260082496                       # Number of bytes read from this memory
system.mem_ctrls.bytes_written::ruby.dir_cntrl0    120365888                       # Number of bytes written to this memory
system.mem_ctrls.bytes_written::total       120365888                       # Number of bytes written to this memory
system.mem_ctrls.num_reads::ruby.dir_cntrl0      4063789                       # Number of read requests responded to by this memory
system.mem_ctrls.num_reads::total             4063789                       # Number of read requests responded to by this memory
system.mem_ctrls.num_writes::ruby.dir_cntrl0      1880717                       # Number of write requests responded to by this memory
system.mem_ctrls.num_writes::total            1880717                       # Number of write requests responded to by this memory
system.mem_ctrls.bw_read::ruby.dir_cntrl0     89462082                       # Total read bandwidth from this memory (bytes/s)
system.mem_ctrls.bw_read::total              89462082                       # Total read bandwidth from this memory (bytes/s)
system.mem_ctrls.bw_write::ruby.dir_cntrl0     41402952                       # Write bandwidth from this memory (bytes/s)
system.mem_ctrls.bw_write::total             41402952                       # Write bandwidth from this memory (bytes/s)
system.mem_ctrls.bw_total::ruby.dir_cntrl0    130865034                       # Total bandwidth to/from this memory (bytes/s)
system.mem_ctrls.bw_total::total            130865034                       # Total bandwidth to/from this memory (bytes/s)
system.mem_ctrls.memReq                       5944506                       # Total number of memory requests
system.mem_ctrls.memRead                      4063789                       # Number of memory reads
system.mem_ctrls.memWrite                     1880717                       # Number of memory writes
system.mem_ctrls.memRefresh                  37285311                       # Number of memory refreshes
system.mem_ctrls.memWaitCycles               11600062                       # Delay stalled at the head of the bank queue
system.mem_ctrls.memInputQ                       1168                       # Delay in the input queue
system.mem_ctrls.memBankQ                       46231                       # Delay behind the head of the bank queue
system.mem_ctrls.totalStalls                 11647461                       # Total number of stall cycles
system.mem_ctrls.stallsPerReq                1.959366                       # Expected number of stall cycles per request
system.mem_ctrls.memBankBusy                 11455343                       # memory stalls due to busy bank
system.mem_ctrls.memBusBusy                    104380                       # memory stalls due to busy bus
system.mem_ctrls.memReadWriteBusy                 874                       # memory stalls due to read write turnaround
system.mem_ctrls.memDataBusBusy                  6475                       # memory stalls due to read read turnaround
system.mem_ctrls.memArbWait                     32990                       # memory stalls due to arbitration
system.mem_ctrls.memBankCount            |      185180      3.12%      3.12% |      185303      3.12%      6.23% |      185273      3.12%      9.35% |      184800      3.11%     12.46% |      185033      3.11%     15.57% |      185488      3.12%     18.69% |      185211      3.12%     21.81% |      186268      3.13%     24.94% |      185239      3.12%     28.06% |      185230      3.12%     31.17% |      186076      3.13%     34.30% |      185399      3.12%     37.42% |      184864      3.11%     40.53% |      185018      3.11%     43.64% |      184668      3.11%     46.75% |      185397      3.12%     49.87% |      186746      3.14%     53.01% |      185995      3.13%     56.14% |      186585      3.14%     59.28% |      185895      3.13%     62.40% |      186297      3.13%     65.54% |      186765      3.14%     68.68% |      186288      3.13%     71.81% |      186697      3.14%     74.96% |      186258      3.13%     78.09% |      186142      3.13%     81.22% |      186042      3.13%     84.35% |      186323      3.13%     87.48% |      185738      3.12%     90.61% |      186211      3.13%     93.74% |      186284      3.13%     96.87% |      185793      3.13%    100.00% # Number of accesses per bank
system.mem_ctrls.memBankCount::total          5944506                       # Number of accesses per bank
system.cpu_voltage_domain.voltage                   1                       # Voltage in Volts
system.cpu_clk_domain.clock                       500                       # Clock period in ticks
system.cpu0.apic_clk_domain.clock                8000                       # Clock period in ticks
system.cpu0.workload.num_syscalls                 110                       # Number of system calls
system.cpu0.numCycles                      5814362678                       # number of cpu cycles simulated
system.cpu0.numWorkItemsStarted                     0                       # number of work items this cpu started
system.cpu0.numWorkItemsCompleted                   0                       # number of work items this cpu completed
system.cpu0.committedInsts                 1624562447                       # Number of instructions committed
system.cpu0.committedOps                   4579668514                       # Number of ops (including micro ops) committed
system.cpu0.num_int_alu_accesses           4323484893                       # Number of integer alu accesses
system.cpu0.num_fp_alu_accesses             108341154                       # Number of float alu accesses
system.cpu0.num_func_calls                  152159734                       # number of times a function call or return occured
system.cpu0.num_conditional_control_insts    357906328                       # number of instructions that are conditional controls
system.cpu0.num_int_insts                  4323484893                       # number of integer instructions
system.cpu0.num_fp_insts                    108341154                       # number of float instructions
system.cpu0.num_int_register_reads         9119195022                       # number of times the integer registers were read
system.cpu0.num_int_register_writes        4290346220                       # number of times the integer registers were written
system.cpu0.num_fp_register_reads           174106828                       # number of times the floating registers were read
system.cpu0.num_fp_register_writes           85151978                       # number of times the floating registers were written
system.cpu0.num_cc_register_reads          3662353528                       # number of times the CC registers were read
system.cpu0.num_cc_register_writes         1370580037                       # number of times the CC registers were written
system.cpu0.num_mem_refs                    714692234                       # number of memory refs
system.cpu0.num_load_insts                  435671971                       # Number of load instructions
system.cpu0.num_store_insts                 279020263                       # Number of store instructions
system.cpu0.num_idle_cycles                  0.002000                       # Number of idle cycles
system.cpu0.num_busy_cycles              5814362677.998000                       # Number of busy cycles
system.cpu0.not_idle_fraction                1.000000                       # Percentage of non-idle cycles
system.cpu0.idle_fraction                    0.000000                       # Percentage of idle cycles
system.cpu0.Branches                        583064362                       # Number of branches fetched
system.cpu0.op_class::No_OpClass             88981571      1.94%      1.94% # Class of executed instruction
system.cpu0.op_class::IntAlu               3310806623     72.29%     74.24% # Class of executed instruction
system.cpu0.op_class::IntMult                     349      0.00%     74.24% # Class of executed instruction
system.cpu0.op_class::IntDiv                380036506      8.30%     82.53% # Class of executed instruction
system.cpu0.op_class::FloatAdd               85151231      1.86%     84.39% # Class of executed instruction
system.cpu0.op_class::FloatCmp                      0      0.00%     84.39% # Class of executed instruction
system.cpu0.op_class::FloatCvt                      0      0.00%     84.39% # Class of executed instruction
system.cpu0.op_class::FloatMult                     0      0.00%     84.39% # Class of executed instruction
system.cpu0.op_class::FloatDiv                      0      0.00%     84.39% # Class of executed instruction
system.cpu0.op_class::FloatSqrt                     0      0.00%     84.39% # Class of executed instruction
system.cpu0.op_class::SimdAdd                       0      0.00%     84.39% # Class of executed instruction
system.cpu0.op_class::SimdAddAcc                    0      0.00%     84.39% # Class of executed instruction
system.cpu0.op_class::SimdAlu                       0      0.00%     84.39% # Class of executed instruction
system.cpu0.op_class::SimdCmp                       0      0.00%     84.39% # Class of executed instruction
system.cpu0.op_class::SimdCvt                       0      0.00%     84.39% # Class of executed instruction
system.cpu0.op_class::SimdMisc                      0      0.00%     84.39% # Class of executed instruction
system.cpu0.op_class::SimdMult                      0      0.00%     84.39% # Class of executed instruction
system.cpu0.op_class::SimdMultAcc                   0      0.00%     84.39% # Class of executed instruction
system.cpu0.op_class::SimdShift                     0      0.00%     84.39% # Class of executed instruction
system.cpu0.op_class::SimdShiftAcc                  0      0.00%     84.39% # Class of executed instruction
system.cpu0.op_class::SimdSqrt                      0      0.00%     84.39% # Class of executed instruction
system.cpu0.op_class::SimdFloatAdd                  0      0.00%     84.39% # Class of executed instruction
system.cpu0.op_class::SimdFloatAlu                  0      0.00%     84.39% # Class of executed instruction
system.cpu0.op_class::SimdFloatCmp                  0      0.00%     84.39% # Class of executed instruction
system.cpu0.op_class::SimdFloatCvt                  0      0.00%     84.39% # Class of executed instruction
system.cpu0.op_class::SimdFloatDiv                  0      0.00%     84.39% # Class of executed instruction
system.cpu0.op_class::SimdFloatMisc                 0      0.00%     84.39% # Class of executed instruction
system.cpu0.op_class::SimdFloatMult                 0      0.00%     84.39% # Class of executed instruction
system.cpu0.op_class::SimdFloatMultAcc              0      0.00%     84.39% # Class of executed instruction
system.cpu0.op_class::SimdFloatSqrt                 0      0.00%     84.39% # Class of executed instruction
system.cpu0.op_class::MemRead               435671971      9.51%     93.91% # Class of executed instruction
system.cpu0.op_class::MemWrite              279020263      6.09%    100.00% # Class of executed instruction
system.cpu0.op_class::IprAccess                     0      0.00%    100.00% # Class of executed instruction
system.cpu0.op_class::InstPrefetch                  0      0.00%    100.00% # Class of executed instruction
system.cpu0.op_class::total                4579668514                       # Class of executed instruction
system.cpu1.apic_clk_domain.clock                8000                       # Clock period in ticks
system.cpu1.numCycles                      5796517848                       # number of cpu cycles simulated
system.cpu1.numWorkItemsStarted                     0                       # number of work items this cpu started
system.cpu1.numWorkItemsCompleted                   0                       # number of work items this cpu completed
system.cpu1.committedInsts                   58077232                       # Number of instructions committed
system.cpu1.committedOps                    116148195                       # Number of ops (including micro ops) committed
system.cpu1.num_int_alu_accesses             87175319                       # Number of integer alu accesses
system.cpu1.num_fp_alu_accesses              56894279                       # Number of float alu accesses
system.cpu1.num_func_calls                     161815                       # number of times a function call or return occured
system.cpu1.num_conditional_control_insts      7134452                       # number of instructions that are conditional controls
system.cpu1.num_int_insts                    87175319                       # number of integer instructions
system.cpu1.num_fp_insts                     56894279                       # number of float instructions
system.cpu1.num_int_register_reads          153196448                       # number of times the integer registers were read
system.cpu1.num_int_register_writes          52032168                       # number of times the integer registers were written
system.cpu1.num_fp_register_reads            86190677                       # number of times the floating registers were read
system.cpu1.num_fp_register_writes           56813392                       # number of times the floating registers were written
system.cpu1.num_cc_register_reads            42887640                       # number of times the CC registers were read
system.cpu1.num_cc_register_writes           42862530                       # number of times the CC registers were written
system.cpu1.num_mem_refs                     28338623                       # number of memory refs
system.cpu1.num_load_insts                   28176742                       # Number of load instructions
system.cpu1.num_store_insts                    161881                       # Number of store instructions
system.cpu1.num_idle_cycles              5526339772.847960                       # Number of idle cycles
system.cpu1.num_busy_cycles              270178075.152041                       # Number of busy cycles
system.cpu1.not_idle_fraction                0.046610                       # Percentage of non-idle cycles
system.cpu1.idle_fraction                    0.953390                       # Percentage of idle cycles
system.cpu1.Branches                          7383422                       # Number of branches fetched
system.cpu1.op_class::No_OpClass                    2      0.00%      0.00% # Class of executed instruction
system.cpu1.op_class::IntAlu                 58594024     50.45%     50.45% # Class of executed instruction
system.cpu1.op_class::IntMult                  242657      0.21%     50.66% # Class of executed instruction
system.cpu1.op_class::IntDiv                       14      0.00%     50.66% # Class of executed instruction
system.cpu1.op_class::FloatAdd               28972875     24.94%     75.60% # Class of executed instruction
system.cpu1.op_class::FloatCmp                      0      0.00%     75.60% # Class of executed instruction
system.cpu1.op_class::FloatCvt                      0      0.00%     75.60% # Class of executed instruction
system.cpu1.op_class::FloatMult                     0      0.00%     75.60% # Class of executed instruction
system.cpu1.op_class::FloatDiv                      0      0.00%     75.60% # Class of executed instruction
system.cpu1.op_class::FloatSqrt                     0      0.00%     75.60% # Class of executed instruction
system.cpu1.op_class::SimdAdd                       0      0.00%     75.60% # Class of executed instruction
system.cpu1.op_class::SimdAddAcc                    0      0.00%     75.60% # Class of executed instruction
system.cpu1.op_class::SimdAlu                       0      0.00%     75.60% # Class of executed instruction
system.cpu1.op_class::SimdCmp                       0      0.00%     75.60% # Class of executed instruction
system.cpu1.op_class::SimdCvt                       0      0.00%     75.60% # Class of executed instruction
system.cpu1.op_class::SimdMisc                      0      0.00%     75.60% # Class of executed instruction
system.cpu1.op_class::SimdMult                      0      0.00%     75.60% # Class of executed instruction
system.cpu1.op_class::SimdMultAcc                   0      0.00%     75.60% # Class of executed instruction
system.cpu1.op_class::SimdShift                     0      0.00%     75.60% # Class of executed instruction
system.cpu1.op_class::SimdShiftAcc                  0      0.00%     75.60% # Class of executed instruction
system.cpu1.op_class::SimdSqrt                      0      0.00%     75.60% # Class of executed instruction
system.cpu1.op_class::SimdFloatAdd                  0      0.00%     75.60% # Class of executed instruction
system.cpu1.op_class::SimdFloatAlu                  0      0.00%     75.60% # Class of executed instruction
system.cpu1.op_class::SimdFloatCmp                  0      0.00%     75.60% # Class of executed instruction
system.cpu1.op_class::SimdFloatCvt                  0      0.00%     75.60% # Class of executed instruction
system.cpu1.op_class::SimdFloatDiv                  0      0.00%     75.60% # Class of executed instruction
system.cpu1.op_class::SimdFloatMisc                 0      0.00%     75.60% # Class of executed instruction
system.cpu1.op_class::SimdFloatMult                 0      0.00%     75.60% # Class of executed instruction
system.cpu1.op_class::SimdFloatMultAcc              0      0.00%     75.60% # Class of executed instruction
system.cpu1.op_class::SimdFloatSqrt                 0      0.00%     75.60% # Class of executed instruction
system.cpu1.op_class::MemRead                28176742     24.26%     99.86% # Class of executed instruction
system.cpu1.op_class::MemWrite                 161881      0.14%    100.00% # Class of executed instruction
system.cpu1.op_class::IprAccess                     0      0.00%    100.00% # Class of executed instruction
system.cpu1.op_class::InstPrefetch                  0      0.00%    100.00% # Class of executed instruction
system.cpu1.op_class::total                 116148195                       # Class of executed instruction
system.cpu2.apic_clk_domain.clock                8000                       # Clock period in ticks
system.cpu2.numCycles                      5814126780                       # number of cpu cycles simulated
system.cpu2.numWorkItemsStarted                     0                       # number of work items this cpu started
system.cpu2.numWorkItemsCompleted                   0                       # number of work items this cpu completed
system.cpu2.committedInsts                   58077232                       # Number of instructions committed
system.cpu2.committedOps                    116148195                       # Number of ops (including micro ops) committed
system.cpu2.num_int_alu_accesses             87175319                       # Number of integer alu accesses
system.cpu2.num_fp_alu_accesses              56894279                       # Number of float alu accesses
system.cpu2.num_func_calls                     161815                       # number of times a function call or return occured
system.cpu2.num_conditional_control_insts      7134452                       # number of instructions that are conditional controls
system.cpu2.num_int_insts                    87175319                       # number of integer instructions
system.cpu2.num_fp_insts                     56894279                       # number of float instructions
system.cpu2.num_int_register_reads          153196448                       # number of times the integer registers were read
system.cpu2.num_int_register_writes          52032168                       # number of times the integer registers were written
system.cpu2.num_fp_register_reads            86190677                       # number of times the floating registers were read
system.cpu2.num_fp_register_writes           56813392                       # number of times the floating registers were written
system.cpu2.num_cc_register_reads            42887640                       # number of times the CC registers were read
system.cpu2.num_cc_register_writes           42862530                       # number of times the CC registers were written
system.cpu2.num_mem_refs                     28338623                       # number of memory refs
system.cpu2.num_load_insts                   28176742                       # Number of load instructions
system.cpu2.num_store_insts                    161881                       # Number of store instructions
system.cpu2.num_idle_cycles              5525520181.706802                       # Number of idle cycles
system.cpu2.num_busy_cycles              288606598.293198                       # Number of busy cycles
system.cpu2.not_idle_fraction                0.049639                       # Percentage of non-idle cycles
system.cpu2.idle_fraction                    0.950361                       # Percentage of idle cycles
system.cpu2.Branches                          7383422                       # Number of branches fetched
system.cpu2.op_class::No_OpClass                    2      0.00%      0.00% # Class of executed instruction
system.cpu2.op_class::IntAlu                 58594024     50.45%     50.45% # Class of executed instruction
system.cpu2.op_class::IntMult                  242657      0.21%     50.66% # Class of executed instruction
system.cpu2.op_class::IntDiv                       14      0.00%     50.66% # Class of executed instruction
system.cpu2.op_class::FloatAdd               28972875     24.94%     75.60% # Class of executed instruction
system.cpu2.op_class::FloatCmp                      0      0.00%     75.60% # Class of executed instruction
system.cpu2.op_class::FloatCvt                      0      0.00%     75.60% # Class of executed instruction
system.cpu2.op_class::FloatMult                     0      0.00%     75.60% # Class of executed instruction
system.cpu2.op_class::FloatDiv                      0      0.00%     75.60% # Class of executed instruction
system.cpu2.op_class::FloatSqrt                     0      0.00%     75.60% # Class of executed instruction
system.cpu2.op_class::SimdAdd                       0      0.00%     75.60% # Class of executed instruction
system.cpu2.op_class::SimdAddAcc                    0      0.00%     75.60% # Class of executed instruction
system.cpu2.op_class::SimdAlu                       0      0.00%     75.60% # Class of executed instruction
system.cpu2.op_class::SimdCmp                       0      0.00%     75.60% # Class of executed instruction
system.cpu2.op_class::SimdCvt                       0      0.00%     75.60% # Class of executed instruction
system.cpu2.op_class::SimdMisc                      0      0.00%     75.60% # Class of executed instruction
system.cpu2.op_class::SimdMult                      0      0.00%     75.60% # Class of executed instruction
system.cpu2.op_class::SimdMultAcc                   0      0.00%     75.60% # Class of executed instruction
system.cpu2.op_class::SimdShift                     0      0.00%     75.60% # Class of executed instruction
system.cpu2.op_class::SimdShiftAcc                  0      0.00%     75.60% # Class of executed instruction
system.cpu2.op_class::SimdSqrt                      0      0.00%     75.60% # Class of executed instruction
system.cpu2.op_class::SimdFloatAdd                  0      0.00%     75.60% # Class of executed instruction
system.cpu2.op_class::SimdFloatAlu                  0      0.00%     75.60% # Class of executed instruction
system.cpu2.op_class::SimdFloatCmp                  0      0.00%     75.60% # Class of executed instruction
system.cpu2.op_class::SimdFloatCvt                  0      0.00%     75.60% # Class of executed instruction
system.cpu2.op_class::SimdFloatDiv                  0      0.00%     75.60% # Class of executed instruction
system.cpu2.op_class::SimdFloatMisc                 0      0.00%     75.60% # Class of executed instruction
system.cpu2.op_class::SimdFloatMult                 0      0.00%     75.60% # Class of executed instruction
system.cpu2.op_class::SimdFloatMultAcc              0      0.00%     75.60% # Class of executed instruction
system.cpu2.op_class::SimdFloatSqrt                 0      0.00%     75.60% # Class of executed instruction
system.cpu2.op_class::MemRead                28176742     24.26%     99.86% # Class of executed instruction
system.cpu2.op_class::MemWrite                 161881      0.14%    100.00% # Class of executed instruction
system.cpu2.op_class::IprAccess                     0      0.00%    100.00% # Class of executed instruction
system.cpu2.op_class::InstPrefetch                  0      0.00%    100.00% # Class of executed instruction
system.cpu2.op_class::total                 116148195                       # Class of executed instruction
system.ruby.clk_domain.clock                      500                       # Clock period in ticks
system.ruby.delayHist::bucket_size                  8                       # delay histogram for all message
system.ruby.delayHist::max_bucket                  79                       # delay histogram for all message
system.ruby.delayHist::samples               41141544                       # delay histogram for all message
system.ruby.delayHist::mean                  0.272396                       # delay histogram for all message
system.ruby.delayHist::stdev                 1.440505                       # delay histogram for all message
system.ruby.delayHist                    |    39837090     96.83%     96.83% |     1301062      3.16%     99.99% |        3209      0.01%    100.00% |          56      0.00%    100.00% |          34      0.00%    100.00% |          59      0.00%    100.00% |          29      0.00%    100.00% |           2      0.00%    100.00% |           2      0.00%    100.00% |           1      0.00%    100.00% # delay histogram for all message
system.ruby.delayHist::total                 41141544                       # delay histogram for all message
system.ruby.outstanding_req_hist::bucket_size            1                      
system.ruby.outstanding_req_hist::max_bucket            9                      
system.ruby.outstanding_req_hist::samples   3033837726                      
system.ruby.outstanding_req_hist::mean       1.000194                      
system.ruby.outstanding_req_hist::gmean      1.000135                      
system.ruby.outstanding_req_hist::stdev      0.013943                      
system.ruby.outstanding_req_hist         |           0      0.00%      0.00% |  3033247838     99.98%     99.98% |      589888      0.02%    100.00% |           0      0.00%    100.00% |           0      0.00%    100.00% |           0      0.00%    100.00% |           0      0.00%    100.00% |           0      0.00%    100.00% |           0      0.00%    100.00% |           0      0.00%    100.00%
system.ruby.outstanding_req_hist::total    3033837726                      
system.ruby.latency_hist::bucket_size              16                      
system.ruby.latency_hist::max_bucket              159                      
system.ruby.latency_hist::samples          3033837726                      
system.ruby.latency_hist::mean               1.101258                      
system.ruby.latency_hist::gmean              1.007256                      
system.ruby.latency_hist::stdev              2.563837                      
system.ruby.latency_hist                 |  3028397049     99.82%     99.82% |     1373150      0.05%     99.87% |        3710      0.00%     99.87% |     2203076      0.07%     99.94% |      958073      0.03%     99.97% |      889034      0.03%    100.00% |       13570      0.00%    100.00% |          56      0.00%    100.00% |           8      0.00%    100.00% |           0      0.00%    100.00%
system.ruby.latency_hist::total            3033837726                      
system.ruby.hit_latency_hist::bucket_size           16                      
system.ruby.hit_latency_hist::max_bucket          159                      
system.ruby.hit_latency_hist::samples      3033837726                      
system.ruby.hit_latency_hist::mean           1.101258                      
system.ruby.hit_latency_hist::gmean          1.007256                      
system.ruby.hit_latency_hist::stdev          2.563837                      
system.ruby.hit_latency_hist             |  3028397049     99.82%     99.82% |     1373150      0.05%     99.87% |        3710      0.00%     99.87% |     2203076      0.07%     99.94% |      958073      0.03%     99.97% |      889034      0.03%    100.00% |       13570      0.00%    100.00% |          56      0.00%    100.00% |           8      0.00%    100.00% |           0      0.00%    100.00%
system.ruby.hit_latency_hist::total        3033837726                      
system.ruby.l0_cntrl0.Dcache.demand_hits    712518593                       # Number of cache demand hits
system.ruby.l0_cntrl0.Dcache.demand_misses      2173705                       # Number of cache demand misses
system.ruby.l0_cntrl0.Dcache.demand_accesses    714692298                       # Number of cache demand accesses
system.ruby.l0_cntrl0.Icache.demand_hits   2112863013                       # Number of cache demand hits
system.ruby.l0_cntrl0.Icache.demand_misses         3965                       # Number of cache demand misses
system.ruby.l0_cntrl0.Icache.demand_accesses   2112866978                       # Number of cache demand accesses
system.ruby.l0_cntrl0.Zcache.demand_hits    126113798                       # Number of cache demand hits
system.ruby.l0_cntrl0.Zcache.demand_misses      1640969                       # Number of cache demand misses
system.ruby.l0_cntrl0.Zcache.demand_accesses    127754767                       # Number of cache demand accesses
system.ruby.l0_cntrl1.Dcache.demand_hits     26834500                       # Number of cache demand hits
system.ruby.l0_cntrl1.Dcache.demand_misses      1799035                       # Number of cache demand misses
system.ruby.l0_cntrl1.Dcache.demand_accesses     28633535                       # Number of cache demand accesses
system.ruby.l0_cntrl1.Icache.demand_hits     74503806                       # Number of cache demand hits
system.ruby.l0_cntrl1.Icache.demand_misses         1884                       # Number of cache demand misses
system.ruby.l0_cntrl1.Icache.demand_accesses     74505690                       # Number of cache demand accesses
system.ruby.l0_cntrl1.Zcache.demand_hits       517168                       # Number of cache demand hits
system.ruby.l0_cntrl1.Zcache.demand_misses        12196                       # Number of cache demand misses
system.ruby.l0_cntrl1.Zcache.demand_accesses       529364                       # Number of cache demand accesses
system.ruby.l0_cntrl2.Dcache.demand_hits     26841727                       # Number of cache demand hits
system.ruby.l0_cntrl2.Dcache.demand_misses      1791808                       # Number of cache demand misses
system.ruby.l0_cntrl2.Dcache.demand_accesses     28633535                       # Number of cache demand accesses
system.ruby.l0_cntrl2.Icache.demand_hits     74504445                       # Number of cache demand hits
system.ruby.l0_cntrl2.Icache.demand_misses         1245                       # Number of cache demand misses
system.ruby.l0_cntrl2.Icache.demand_accesses     74505690                       # Number of cache demand accesses
system.ruby.l0_cntrl2.Zcache.demand_hits       419526                       # Number of cache demand hits
system.ruby.l0_cntrl2.Zcache.demand_misses        12648                       # Number of cache demand misses
system.ruby.l0_cntrl2.Zcache.demand_accesses       432174                       # Number of cache demand accesses
system.ruby.l1_cntrl0.cache.demand_hits           150                       # Number of cache demand hits
system.ruby.l1_cntrl0.cache.demand_misses      2177520                       # Number of cache demand misses
system.ruby.l1_cntrl0.cache.demand_accesses      2177670                       # Number of cache demand accesses
system.ruby.l1_cntrl0.zcache.demand_hits           62                       # Number of cache demand hits
system.ruby.l1_cntrl0.zcache.demand_misses       529513                       # Number of cache demand misses
system.ruby.l1_cntrl0.zcache.demand_accesses       529575                       # Number of cache demand accesses
system.ruby.l1_cntrl1.cache.demand_hits        165448                       # Number of cache demand hits
system.ruby.l1_cntrl1.cache.demand_misses      1635471                       # Number of cache demand misses
system.ruby.l1_cntrl1.cache.demand_accesses      1800919                       # Number of cache demand accesses
system.ruby.l1_cntrl1.zcache.demand_hits            0                       # Number of cache demand hits
system.ruby.l1_cntrl1.zcache.demand_misses            0                       # Number of cache demand misses
system.ruby.l1_cntrl1.zcache.demand_accesses            0                       # Number of cache demand accesses
system.ruby.l1_cntrl2.cache.demand_hits        165367                       # Number of cache demand hits
system.ruby.l1_cntrl2.cache.demand_misses      1627686                       # Number of cache demand misses
system.ruby.l1_cntrl2.cache.demand_accesses      1793053                       # Number of cache demand accesses
system.ruby.l1_cntrl2.zcache.demand_hits            0                       # Number of cache demand hits
system.ruby.l1_cntrl2.zcache.demand_misses            0                       # Number of cache demand misses
system.ruby.l1_cntrl2.zcache.demand_accesses            0                       # Number of cache demand accesses
system.ruby.l2_cntrl0.L2cache.demand_hits      1374665                       # Number of cache demand hits
system.ruby.l2_cntrl0.L2cache.demand_misses      4066012                       # Number of cache demand misses
system.ruby.l2_cntrl0.L2cache.demand_accesses      5440677                       # Number of cache demand accesses
system.ruby.l2_cntrl0.ZL2cache.demand_hits        13906                       # Number of cache demand hits
system.ruby.l2_cntrl0.ZL2cache.demand_misses       311931                       # Number of cache demand misses
system.ruby.l2_cntrl0.ZL2cache.demand_accesses       325837                       # Number of cache demand accesses
system.ruby.l2_cntrl0.fully_busy_cycles           665                       # cycles for which number of transistions == max transitions
system.ruby.memctrl_clk_domain.clock             1500                       # Clock period in ticks
system.ruby.network.routers0.percent_links_utilized            0                      
system.ruby.network.routers1.percent_links_utilized            0                      
system.ruby.network.routers2.percent_links_utilized            0                      
system.ruby.network.routers3.percent_links_utilized     0.196556                      
system.ruby.network.routers3.msg_count.Control::0      2177520                      
system.ruby.network.routers3.msg_count.Request_Control::2       979057                      
system.ruby.network.routers3.msg_count.Response_Data::1      2177535                      
system.ruby.network.routers3.msg_count.Response_Control::1      1198180                      
system.ruby.network.routers3.msg_count.Response_Control::2      2177518                      
system.ruby.network.routers3.msg_count.Writeback_Data::0      1197344                      
system.ruby.network.routers3.msg_count.Writeback_Data::1       978585                      
system.ruby.network.routers3.msg_count.Writeback_Control::0          358                      
system.ruby.network.routers3.msg_bytes.Control::0     17420160                      
system.ruby.network.routers3.msg_bytes.Request_Control::2      7832456                      
system.ruby.network.routers3.msg_bytes.Response_Data::1    156782520                      
system.ruby.network.routers3.msg_bytes.Response_Control::1      9585440                      
system.ruby.network.routers3.msg_bytes.Response_Control::2     17420144                      
system.ruby.network.routers3.msg_bytes.Writeback_Data::0     86208768                      
system.ruby.network.routers3.msg_bytes.Writeback_Data::1     70458120                      
system.ruby.network.routers3.msg_bytes.Writeback_Control::0         2864                      
system.ruby.network.routers4.percent_links_utilized     0.107280                      
system.ruby.network.routers4.msg_count.Control::0      1635471                      
system.ruby.network.routers4.msg_count.Request_Control::2       435030                      
system.ruby.network.routers4.msg_count.Response_Data::1      1638714                      
system.ruby.network.routers4.msg_count.Response_Control::1      1207383                      
system.ruby.network.routers4.msg_count.Response_Control::2      1631260                      
system.ruby.network.routers4.msg_count.Writeback_Data::0        35018                      
system.ruby.network.routers4.msg_count.Writeback_Data::1       423898                      
system.ruby.network.routers4.msg_count.Writeback_Control::0      1162854                      
system.ruby.network.routers4.msg_bytes.Control::0     13083768                      
system.ruby.network.routers4.msg_bytes.Request_Control::2      3480240                      
system.ruby.network.routers4.msg_bytes.Response_Data::1    117987408                      
system.ruby.network.routers4.msg_bytes.Response_Control::1      9659064                      
system.ruby.network.routers4.msg_bytes.Response_Control::2     13050080                      
system.ruby.network.routers4.msg_bytes.Writeback_Data::0      2521296                      
system.ruby.network.routers4.msg_bytes.Writeback_Data::1     30520656                      
system.ruby.network.routers4.msg_bytes.Writeback_Control::0      9302832                      
system.ruby.network.routers5.percent_links_utilized     0.115385                      
system.ruby.network.routers5.msg_count.Control::0      1627686                      
system.ruby.network.routers5.msg_count.Request_Control::2       692330                      
system.ruby.network.routers5.msg_count.Response_Data::1      1628764                      
system.ruby.network.routers5.msg_count.Response_Control::1       938398                      
system.ruby.network.routers5.msg_count.Response_Control::2      1623289                      
system.ruby.network.routers5.msg_count.Writeback_Data::0        29162                      
system.ruby.network.routers5.msg_count.Writeback_Data::1       681513                      
system.ruby.network.routers5.msg_count.Writeback_Control::0       898957                      
system.ruby.network.routers5.msg_bytes.Control::0     13021488                      
system.ruby.network.routers5.msg_bytes.Request_Control::2      5538640                      
system.ruby.network.routers5.msg_bytes.Response_Data::1    117271008                      
system.ruby.network.routers5.msg_bytes.Response_Control::1      7507184                      
system.ruby.network.routers5.msg_bytes.Response_Control::2     12986312                      
system.ruby.network.routers5.msg_bytes.Writeback_Data::0      2099664                      
system.ruby.network.routers5.msg_bytes.Writeback_Data::1     49068936                      
system.ruby.network.routers5.msg_bytes.Writeback_Control::0      7191656                      
system.ruby.network.routers6.percent_links_utilized     0.693067                      
system.ruby.network.routers6.msg_count.Control::0      9504466                      
system.ruby.network.routers6.msg_count.Request_Control::2      2104223                      
system.ruby.network.routers6.msg_count.Response_Data::1     11385120                      
system.ruby.network.routers6.msg_count.Response_Control::1      9510926                      
system.ruby.network.routers6.msg_count.Response_Control::2      5432067                      
system.ruby.network.routers6.msg_count.Writeback_Data::0      1261524                      
system.ruby.network.routers6.msg_count.Writeback_Data::1      2083996                      
system.ruby.network.routers6.msg_count.Writeback_Control::0      2062169                      
system.ruby.network.routers6.msg_bytes.Control::0     76035728                      
system.ruby.network.routers6.msg_bytes.Request_Control::2     16833784                      
system.ruby.network.routers6.msg_bytes.Response_Data::1    819728640                      
system.ruby.network.routers6.msg_bytes.Response_Control::1     76087408                      
system.ruby.network.routers6.msg_bytes.Response_Control::2     43456536                      
system.ruby.network.routers6.msg_bytes.Writeback_Data::0     90829728                      
system.ruby.network.routers6.msg_bytes.Writeback_Data::1    150047712                      
system.ruby.network.routers6.msg_bytes.Writeback_Control::0     16497352                      
system.ruby.network.routers7.percent_links_utilized     0.274025                      
system.ruby.network.routers7.msg_count.Control::0      4063789                      
system.ruby.network.routers7.msg_count.Response_Data::1      5944506                      
system.ruby.network.routers7.msg_count.Response_Control::1      6166989                      
system.ruby.network.routers7.msg_bytes.Control::0     32510312                      
system.ruby.network.routers7.msg_bytes.Response_Data::1    428004432                      
system.ruby.network.routers7.msg_bytes.Response_Control::1     49335912                      
system.ruby.network.routers8.percent_links_utilized     0.173291                      
system.ruby.network.routers8.msg_count.Control::0      9504466                      
system.ruby.network.routers8.msg_count.Request_Control::2      2106417                      
system.ruby.network.routers8.msg_count.Response_Data::1     11387343                      
system.ruby.network.routers8.msg_count.Response_Control::1      9510938                      
system.ruby.network.routers8.msg_count.Response_Control::2      5432067                      
system.ruby.network.routers8.msg_count.Writeback_Data::0      1261524                      
system.ruby.network.routers8.msg_count.Writeback_Data::1      2083996                      
system.ruby.network.routers8.msg_count.Writeback_Control::0      2062169                      
system.ruby.network.routers8.msg_bytes.Control::0     76035728                      
system.ruby.network.routers8.msg_bytes.Request_Control::2     16851336                      
system.ruby.network.routers8.msg_bytes.Response_Data::1    819888696                      
system.ruby.network.routers8.msg_bytes.Response_Control::1     76087504                      
system.ruby.network.routers8.msg_bytes.Response_Control::2     43456536                      
system.ruby.network.routers8.msg_bytes.Writeback_Data::0     90829728                      
system.ruby.network.routers8.msg_bytes.Writeback_Data::1    150047712                      
system.ruby.network.routers8.msg_bytes.Writeback_Control::0     16497352                      
system.ruby.network.msg_count.Control        28513398                      
system.ruby.network.msg_count.Request_Control      6317057                      
system.ruby.network.msg_count.Response_Data     34161982                      
system.ruby.network.msg_count.Response_Control     44829015                      
system.ruby.network.msg_count.Writeback_Data     10036560                      
system.ruby.network.msg_count.Writeback_Control      6186507                      
system.ruby.network.msg_byte.Control        228107184                      
system.ruby.network.msg_byte.Request_Control     50536456                      
system.ruby.network.msg_byte.Response_Data   2459662704                      
system.ruby.network.msg_byte.Response_Control    358632120                      
system.ruby.network.msg_byte.Writeback_Data    722632320                      
system.ruby.network.msg_byte.Writeback_Control     49492056                      
system.ruby.network.routers0.throttle0.link_utilization            0                      
system.ruby.network.routers0.throttle1.link_utilization            0                      
system.ruby.network.routers1.throttle0.link_utilization            0                      
system.ruby.network.routers1.throttle1.link_utilization            0                      
system.ruby.network.routers2.throttle0.link_utilization            0                      
system.ruby.network.routers2.throttle1.link_utilization            0                      
system.ruby.network.routers3.throttle0.link_utilization     0.187246                      
system.ruby.network.routers3.throttle0.msg_count.Request_Control::2       979057                      
system.ruby.network.routers3.throttle0.msg_count.Response_Data::1      2177511                      
system.ruby.network.routers3.throttle0.msg_count.Response_Control::1      1197721                      
system.ruby.network.routers3.throttle0.msg_bytes.Request_Control::2      7832456                      
system.ruby.network.routers3.throttle0.msg_bytes.Response_Data::1    156780792                      
system.ruby.network.routers3.throttle0.msg_bytes.Response_Control::1      9581768                      
system.ruby.network.routers3.throttle1.link_utilization     0.205865                      
system.ruby.network.routers3.throttle1.msg_count.Control::0      2177520                      
system.ruby.network.routers3.throttle1.msg_count.Response_Data::1           24                      
system.ruby.network.routers3.throttle1.msg_count.Response_Control::1          459                      
system.ruby.network.routers3.throttle1.msg_count.Response_Control::2      2177518                      
system.ruby.network.routers3.throttle1.msg_count.Writeback_Data::0      1197344                      
system.ruby.network.routers3.throttle1.msg_count.Writeback_Data::1       978585                      
system.ruby.network.routers3.throttle1.msg_count.Writeback_Control::0          358                      
system.ruby.network.routers3.throttle1.msg_bytes.Control::0     17420160                      
system.ruby.network.routers3.throttle1.msg_bytes.Response_Data::1         1728                      
system.ruby.network.routers3.throttle1.msg_bytes.Response_Control::1         3672                      
system.ruby.network.routers3.throttle1.msg_bytes.Response_Control::2     17420144                      
system.ruby.network.routers3.throttle1.msg_bytes.Writeback_Data::0     86208768                      
system.ruby.network.routers3.throttle1.msg_bytes.Writeback_Data::1     70458120                      
system.ruby.network.routers3.throttle1.msg_bytes.Writeback_Control::0         2864                      
system.ruby.network.routers4.throttle0.link_utilization     0.140618                      
system.ruby.network.routers4.throttle0.msg_count.Request_Control::2       435030                      
system.ruby.network.routers4.throttle0.msg_count.Response_Data::1      1635470                      
system.ruby.network.routers4.throttle0.msg_count.Response_Control::1      1197874                      
system.ruby.network.routers4.throttle0.msg_bytes.Request_Control::2      3480240                      
system.ruby.network.routers4.throttle0.msg_bytes.Response_Data::1    117753840                      
system.ruby.network.routers4.throttle0.msg_bytes.Response_Control::1      9582992                      
system.ruby.network.routers4.throttle1.link_utilization     0.073942                      
system.ruby.network.routers4.throttle1.msg_count.Control::0      1635471                      
system.ruby.network.routers4.throttle1.msg_count.Response_Data::1         3244                      
system.ruby.network.routers4.throttle1.msg_count.Response_Control::1         9509                      
system.ruby.network.routers4.throttle1.msg_count.Response_Control::2      1631260                      
system.ruby.network.routers4.throttle1.msg_count.Writeback_Data::0        35018                      
system.ruby.network.routers4.throttle1.msg_count.Writeback_Data::1       423898                      
system.ruby.network.routers4.throttle1.msg_count.Writeback_Control::0      1162854                      
system.ruby.network.routers4.throttle1.msg_bytes.Control::0     13083768                      
system.ruby.network.routers4.throttle1.msg_bytes.Response_Data::1       233568                      
system.ruby.network.routers4.throttle1.msg_bytes.Response_Control::1        76072                      
system.ruby.network.routers4.throttle1.msg_bytes.Response_Control::2     13050080                      
system.ruby.network.routers4.throttle1.msg_bytes.Writeback_Data::0      2521296                      
system.ruby.network.routers4.throttle1.msg_bytes.Writeback_Data::1     30520656                      
system.ruby.network.routers4.throttle1.msg_bytes.Writeback_Control::0      9302832                      
system.ruby.network.routers5.throttle0.link_utilization     0.139909                      
system.ruby.network.routers5.throttle0.msg_count.Request_Control::2       692330                      
system.ruby.network.routers5.throttle0.msg_count.Response_Data::1      1627685                      
system.ruby.network.routers5.throttle0.msg_count.Response_Control::1       928121                      
system.ruby.network.routers5.throttle0.msg_bytes.Request_Control::2      5538640                      
system.ruby.network.routers5.throttle0.msg_bytes.Response_Data::1    117193320                      
system.ruby.network.routers5.throttle0.msg_bytes.Response_Control::1      7424968                      
system.ruby.network.routers5.throttle1.link_utilization     0.090861                      
system.ruby.network.routers5.throttle1.msg_count.Control::0      1627686                      
system.ruby.network.routers5.throttle1.msg_count.Response_Data::1         1079                      
system.ruby.network.routers5.throttle1.msg_count.Response_Control::1        10277                      
system.ruby.network.routers5.throttle1.msg_count.Response_Control::2      1623289                      
system.ruby.network.routers5.throttle1.msg_count.Writeback_Data::0        29162                      
system.ruby.network.routers5.throttle1.msg_count.Writeback_Data::1       681513                      
system.ruby.network.routers5.throttle1.msg_count.Writeback_Control::0       898957                      
system.ruby.network.routers5.throttle1.msg_bytes.Control::0     13021488                      
system.ruby.network.routers5.throttle1.msg_bytes.Response_Data::1        77688                      
system.ruby.network.routers5.throttle1.msg_bytes.Response_Control::1        82216                      
system.ruby.network.routers5.throttle1.msg_bytes.Response_Control::2     12986312                      
system.ruby.network.routers5.throttle1.msg_bytes.Writeback_Data::0      2099664                      
system.ruby.network.routers5.throttle1.msg_bytes.Writeback_Data::1     49068936                      
system.ruby.network.routers5.throttle1.msg_bytes.Writeback_Control::0      7191656                      
system.ruby.network.routers6.throttle0.link_utilization     0.719617                      
system.ruby.network.routers6.throttle0.msg_count.Control::0      5440677                      
system.ruby.network.routers6.throttle0.msg_count.Response_Data::1      4065960                      
system.ruby.network.routers6.throttle0.msg_count.Response_Control::1      4044086                      
system.ruby.network.routers6.throttle0.msg_count.Response_Control::2      5432067                      
system.ruby.network.routers6.throttle0.msg_count.Writeback_Data::0      1261524                      
system.ruby.network.routers6.throttle0.msg_count.Writeback_Data::1      2083996                      
system.ruby.network.routers6.throttle0.msg_count.Writeback_Control::0      2062169                      
system.ruby.network.routers6.throttle0.msg_bytes.Control::0     43525416                      
system.ruby.network.routers6.throttle0.msg_bytes.Response_Data::1    292749120                      
system.ruby.network.routers6.throttle0.msg_bytes.Response_Control::1     32352688                      
system.ruby.network.routers6.throttle0.msg_bytes.Response_Control::2     43456536                      
system.ruby.network.routers6.throttle0.msg_bytes.Writeback_Data::0     90829728                      
system.ruby.network.routers6.throttle0.msg_bytes.Writeback_Data::1    150047712                      
system.ruby.network.routers6.throttle0.msg_bytes.Writeback_Control::0     16497352                      
system.ruby.network.routers6.throttle1.link_utilization     0.666516                      
system.ruby.network.routers6.throttle1.msg_count.Control::0      4063789                      
system.ruby.network.routers6.throttle1.msg_count.Request_Control::2      2104223                      
system.ruby.network.routers6.throttle1.msg_count.Response_Data::1      7319160                      
system.ruby.network.routers6.throttle1.msg_count.Response_Control::1      5466840                      
system.ruby.network.routers6.throttle1.msg_bytes.Control::0     32510312                      
system.ruby.network.routers6.throttle1.msg_bytes.Request_Control::2     16833784                      
system.ruby.network.routers6.throttle1.msg_bytes.Response_Data::1    526979520                      
system.ruby.network.routers6.throttle1.msg_bytes.Response_Control::1     43734720                      
system.ruby.network.routers7.throttle0.link_utilization     0.198933                      
system.ruby.network.routers7.throttle0.msg_count.Control::0      4063789                      
system.ruby.network.routers7.throttle0.msg_count.Response_Data::1      1880717                      
system.ruby.network.routers7.throttle0.msg_count.Response_Control::1      2143136                      
system.ruby.network.routers7.throttle0.msg_bytes.Control::0     32510312                      
system.ruby.network.routers7.throttle0.msg_bytes.Response_Data::1    135411624                      
system.ruby.network.routers7.throttle0.msg_bytes.Response_Control::1     17145088                      
system.ruby.network.routers7.throttle1.link_utilization     0.349118                      
system.ruby.network.routers7.throttle1.msg_count.Response_Data::1      4063789                      
system.ruby.network.routers7.throttle1.msg_count.Response_Control::1      4023853                      
system.ruby.network.routers7.throttle1.msg_bytes.Response_Data::1    292592808                      
system.ruby.network.routers7.throttle1.msg_bytes.Response_Control::1     32190824                      
system.ruby.network.routers8.throttle0.link_utilization            0                      
system.ruby.network.routers8.throttle1.link_utilization            0                      
system.ruby.network.routers8.throttle2.link_utilization            0                      
system.ruby.network.routers8.throttle3.link_utilization     0.187246                      
system.ruby.network.routers8.throttle3.msg_count.Request_Control::2       979057                      
system.ruby.network.routers8.throttle3.msg_count.Response_Data::1      2177511                      
system.ruby.network.routers8.throttle3.msg_count.Response_Control::1      1197721                      
system.ruby.network.routers8.throttle3.msg_bytes.Request_Control::2      7832456                      
system.ruby.network.routers8.throttle3.msg_bytes.Response_Data::1    156780792                      
system.ruby.network.routers8.throttle3.msg_bytes.Response_Control::1      9581768                      
system.ruby.network.routers8.throttle4.link_utilization     0.140618                      
system.ruby.network.routers8.throttle4.msg_count.Request_Control::2       435030                      
system.ruby.network.routers8.throttle4.msg_count.Response_Data::1      1635470                      
system.ruby.network.routers8.throttle4.msg_count.Response_Control::1      1197874                      
system.ruby.network.routers8.throttle4.msg_bytes.Request_Control::2      3480240                      
system.ruby.network.routers8.throttle4.msg_bytes.Response_Data::1    117753840                      
system.ruby.network.routers8.throttle4.msg_bytes.Response_Control::1      9582992                      
system.ruby.network.routers8.throttle5.link_utilization     0.139909                      
system.ruby.network.routers8.throttle5.msg_count.Request_Control::2       692330                      
system.ruby.network.routers8.throttle5.msg_count.Response_Data::1      1627685                      
system.ruby.network.routers8.throttle5.msg_count.Response_Control::1       928121                      
system.ruby.network.routers8.throttle5.msg_bytes.Request_Control::2      5538640                      
system.ruby.network.routers8.throttle5.msg_bytes.Response_Data::1    117193320                      
system.ruby.network.routers8.throttle5.msg_bytes.Response_Control::1      7424968                      
system.ruby.network.routers8.throttle6.link_utilization     0.719617                      
system.ruby.network.routers8.throttle6.msg_count.Control::0      5440677                      
system.ruby.network.routers8.throttle6.msg_count.Response_Data::1      4065960                      
system.ruby.network.routers8.throttle6.msg_count.Response_Control::1      4044086                      
system.ruby.network.routers8.throttle6.msg_count.Response_Control::2      5432067                      
system.ruby.network.routers8.throttle6.msg_count.Writeback_Data::0      1261524                      
system.ruby.network.routers8.throttle6.msg_count.Writeback_Data::1      2083996                      
system.ruby.network.routers8.throttle6.msg_count.Writeback_Control::0      2062169                      
system.ruby.network.routers8.throttle6.msg_bytes.Control::0     43525416                      
system.ruby.network.routers8.throttle6.msg_bytes.Response_Data::1    292749120                      
system.ruby.network.routers8.throttle6.msg_bytes.Response_Control::1     32352688                      
system.ruby.network.routers8.throttle6.msg_bytes.Response_Control::2     43456536                      
system.ruby.network.routers8.throttle6.msg_bytes.Writeback_Data::0     90829728                      
system.ruby.network.routers8.throttle6.msg_bytes.Writeback_Data::1    150047712                      
system.ruby.network.routers8.throttle6.msg_bytes.Writeback_Control::0     16497352                      
system.ruby.network.routers8.throttle7.link_utilization     0.198933                      
system.ruby.network.routers8.throttle7.msg_count.Control::0      4063789                      
system.ruby.network.routers8.throttle7.msg_count.Response_Data::1      1880717                      
system.ruby.network.routers8.throttle7.msg_count.Response_Control::1      2143136                      
system.ruby.network.routers8.throttle7.msg_bytes.Control::0     32510312                      
system.ruby.network.routers8.throttle7.msg_bytes.Response_Data::1    135411624                      
system.ruby.network.routers8.throttle7.msg_bytes.Response_Control::1     17145088                      
system.ruby.delayVCHist.vnet_0::bucket_size            8                       # delay histogram for vnet_0
system.ruby.delayVCHist.vnet_0::max_bucket           79                       # delay histogram for vnet_0
system.ruby.delayVCHist.vnet_0::samples      14196437                       # delay histogram for vnet_0
system.ruby.delayVCHist.vnet_0::mean         0.751215                       # delay histogram for vnet_0
system.ruby.delayVCHist.vnet_0::stdev        2.334668                       # delay histogram for vnet_0
system.ruby.delayVCHist.vnet_0           |    12909161     90.93%     90.93% |     1283915      9.04%     99.98% |        3178      0.02%    100.00% |          56      0.00%    100.00% |          34      0.00%    100.00% |          59      0.00%    100.00% |          29      0.00%    100.00% |           2      0.00%    100.00% |           2      0.00%    100.00% |           1      0.00%    100.00% # delay histogram for vnet_0
system.ruby.delayVCHist.vnet_0::total        14196437                       # delay histogram for vnet_0
system.ruby.delayVCHist.vnet_1::bucket_size            2                       # delay histogram for vnet_1
system.ruby.delayVCHist.vnet_1::max_bucket           19                       # delay histogram for vnet_1
system.ruby.delayVCHist.vnet_1::samples      24730066                       # delay histogram for vnet_1
system.ruby.delayVCHist.vnet_1::mean         0.016389                       # delay histogram for vnet_1
system.ruby.delayVCHist.vnet_1::stdev        0.307549                       # delay histogram for vnet_1
system.ruby.delayVCHist.vnet_1           |    24644774     99.66%     99.66% |       23624      0.10%     99.75% |       23870      0.10%     99.85% |       20637      0.08%     99.93% |       16539      0.07%    100.00% |         584      0.00%    100.00% |           5      0.00%    100.00% |           2      0.00%    100.00% |          24      0.00%    100.00% |           7      0.00%    100.00% # delay histogram for vnet_1
system.ruby.delayVCHist.vnet_1::total        24730066                       # delay histogram for vnet_1
system.ruby.delayVCHist.vnet_2::bucket_size            2                       # delay histogram for vnet_2
system.ruby.delayVCHist.vnet_2::max_bucket           19                       # delay histogram for vnet_2
system.ruby.delayVCHist.vnet_2::samples       2215041                       # delay histogram for vnet_2
system.ruby.delayVCHist.vnet_2::mean         0.061815                       # delay histogram for vnet_2
system.ruby.delayVCHist.vnet_2::stdev        0.553221                       # delay histogram for vnet_2
system.ruby.delayVCHist.vnet_2           |     2187608     98.76%     98.76% |         141      0.01%     98.77% |       27270      1.23%    100.00% |           5      0.00%    100.00% |           0      0.00%    100.00% |           0      0.00%    100.00% |           0      0.00%    100.00% |          17      0.00%    100.00% |           0      0.00%    100.00% |           0      0.00%    100.00% # delay histogram for vnet_2
system.ruby.delayVCHist.vnet_2::total         2215041                       # delay histogram for vnet_2
system.ruby.LD.latency_hist::bucket_size           16                      
system.ruby.LD.latency_hist::max_bucket           159                      
system.ruby.LD.latency_hist::samples        441896601                      
system.ruby.LD.latency_hist::mean            1.333137                      
system.ruby.LD.latency_hist::gmean           1.028771                      
system.ruby.LD.latency_hist::stdev           4.243085                      
system.ruby.LD.latency_hist              |   438645800     99.26%     99.26% |     1367468      0.31%     99.57% |        3677      0.00%     99.57% |     1679960      0.38%     99.95% |      169428      0.04%     99.99% |       29782      0.01%    100.00% |         458      0.00%    100.00% |          21      0.00%    100.00% |           7      0.00%    100.00% |           0      0.00%    100.00%
system.ruby.LD.latency_hist::total          441896601                      
system.ruby.LD.hit_latency_hist::bucket_size           16                      
system.ruby.LD.hit_latency_hist::max_bucket          159                      
system.ruby.LD.hit_latency_hist::samples    441896601                      
system.ruby.LD.hit_latency_hist::mean        1.333137                      
system.ruby.LD.hit_latency_hist::gmean       1.028771                      
system.ruby.LD.hit_latency_hist::stdev       4.243085                      
system.ruby.LD.hit_latency_hist          |   438645800     99.26%     99.26% |     1367468      0.31%     99.57% |        3677      0.00%     99.57% |     1679960      0.38%     99.95% |      169428      0.04%     99.99% |       29782      0.01%    100.00% |         458      0.00%    100.00% |          21      0.00%    100.00% |           7      0.00%    100.00% |           0      0.00%    100.00%
system.ruby.LD.hit_latency_hist::total      441896601                      
system.ruby.ST.latency_hist::bucket_size           16                      
system.ruby.ST.latency_hist::max_bucket           159                      
system.ruby.ST.latency_hist::samples        228625747                      
system.ruby.ST.latency_hist::mean            1.698749                      
system.ruby.ST.latency_hist::gmean           1.041867                      
system.ruby.ST.latency_hist::stdev           7.198260                      
system.ruby.ST.latency_hist              |   226442976     99.05%     99.05% |         466      0.00%     99.05% |           6      0.00%     99.05% |      521730      0.23%     99.27% |      788390      0.34%     99.62% |      859036      0.38%     99.99% |       13107      0.01%    100.00% |          35      0.00%    100.00% |           1      0.00%    100.00% |           0      0.00%    100.00%
system.ruby.ST.latency_hist::total          228625747                      
system.ruby.ST.hit_latency_hist::bucket_size           16                      
system.ruby.ST.hit_latency_hist::max_bucket          159                      
system.ruby.ST.hit_latency_hist::samples    228625747                      
system.ruby.ST.hit_latency_hist::mean        1.698749                      
system.ruby.ST.hit_latency_hist::gmean       1.041867                      
system.ruby.ST.hit_latency_hist::stdev       7.198260                      
system.ruby.ST.hit_latency_hist          |   226442976     99.05%     99.05% |         466      0.00%     99.05% |           6      0.00%     99.05% |      521730      0.23%     99.27% |      788390      0.34%     99.62% |      859036      0.38%     99.99% |       13107      0.01%    100.00% |          35      0.00%    100.00% |           1      0.00%    100.00% |           0      0.00%    100.00%
system.ruby.ST.hit_latency_hist::total      228625747                      
system.ruby.IFETCH.latency_hist::bucket_size           16                      
system.ruby.IFETCH.latency_hist::max_bucket          159                      
system.ruby.IFETCH.latency_hist::samples   2261878358                      
system.ruby.IFETCH.latency_hist::mean        1.000103                      
system.ruby.IFETCH.latency_hist::gmean       1.000011                      
system.ruby.IFETCH.latency_hist::stdev       0.068061                      
system.ruby.IFETCH.latency_hist          |  2261871340    100.00%    100.00% |        5150      0.00%    100.00% |          27      0.00%    100.00% |        1373      0.00%    100.00% |         252      0.00%    100.00% |         211      0.00%    100.00% |           5      0.00%    100.00% |           0      0.00%    100.00% |           0      0.00%    100.00% |           0      0.00%    100.00%
system.ruby.IFETCH.latency_hist::total     2261878358                      
system.ruby.IFETCH.hit_latency_hist::bucket_size           16                      
system.ruby.IFETCH.hit_latency_hist::max_bucket          159                      
system.ruby.IFETCH.hit_latency_hist::samples   2261878358                      
system.ruby.IFETCH.hit_latency_hist::mean     1.000103                      
system.ruby.IFETCH.hit_latency_hist::gmean     1.000011                      
system.ruby.IFETCH.hit_latency_hist::stdev     0.068061                      
system.ruby.IFETCH.hit_latency_hist      |  2261871340    100.00%    100.00% |        5150      0.00%    100.00% |          27      0.00%    100.00% |        1373      0.00%    100.00% |         252      0.00%    100.00% |         211      0.00%    100.00% |           5      0.00%    100.00% |           0      0.00%    100.00% |           0      0.00%    100.00% |           0      0.00%    100.00%
system.ruby.IFETCH.hit_latency_hist::total   2261878358                      
system.ruby.RMW_Read.latency_hist::bucket_size           16                      
system.ruby.RMW_Read.latency_hist::max_bucket          159                      
system.ruby.RMW_Read.latency_hist::samples          454                      
system.ruby.RMW_Read.latency_hist::mean      2.341410                      
system.ruby.RMW_Read.latency_hist::gmean     1.104638                      
system.ruby.RMW_Read.latency_hist::stdev     8.911396                      
system.ruby.RMW_Read.latency_hist        |         443     97.58%     97.58% |           3      0.66%     98.24% |           0      0.00%     98.24% |           6      1.32%     99.56% |           1      0.22%     99.78% |           1      0.22%    100.00% |           0      0.00%    100.00% |           0      0.00%    100.00% |           0      0.00%    100.00% |           0      0.00%    100.00%
system.ruby.RMW_Read.latency_hist::total          454                      
system.ruby.RMW_Read.hit_latency_hist::bucket_size           16                      
system.ruby.RMW_Read.hit_latency_hist::max_bucket          159                      
system.ruby.RMW_Read.hit_latency_hist::samples          454                      
system.ruby.RMW_Read.hit_latency_hist::mean     2.341410                      
system.ruby.RMW_Read.hit_latency_hist::gmean     1.104638                      
system.ruby.RMW_Read.hit_latency_hist::stdev     8.911396                      
system.ruby.RMW_Read.hit_latency_hist    |         443     97.58%     97.58% |           3      0.66%     98.24% |           0      0.00%     98.24% |           6      1.32%     99.56% |           1      0.22%     99.78% |           1      0.22%    100.00% |           0      0.00%    100.00% |           0      0.00%    100.00% |           0      0.00%    100.00% |           0      0.00%    100.00%
system.ruby.RMW_Read.hit_latency_hist::total          454                      
system.ruby.Locked_RMW_Read.latency_hist::bucket_size           16                      
system.ruby.Locked_RMW_Read.latency_hist::max_bucket          159                      
system.ruby.Locked_RMW_Read.latency_hist::samples     50718283                      
system.ruby.Locked_RMW_Read.latency_hist::mean     1.000049                      
system.ruby.Locked_RMW_Read.latency_hist::gmean     1.000007                      
system.ruby.Locked_RMW_Read.latency_hist::stdev     0.043511                      
system.ruby.Locked_RMW_Read.latency_hist |    50718207    100.00%    100.00% |          63      0.00%    100.00% |           0      0.00%    100.00% |           7      0.00%    100.00% |           2      0.00%    100.00% |           4      0.00%    100.00% |           0      0.00%    100.00% |           0      0.00%    100.00% |           0      0.00%    100.00% |           0      0.00%    100.00%
system.ruby.Locked_RMW_Read.latency_hist::total     50718283                      
system.ruby.Locked_RMW_Read.hit_latency_hist::bucket_size           16                      
system.ruby.Locked_RMW_Read.hit_latency_hist::max_bucket          159                      
system.ruby.Locked_RMW_Read.hit_latency_hist::samples     50718283                      
system.ruby.Locked_RMW_Read.hit_latency_hist::mean     1.000049                      
system.ruby.Locked_RMW_Read.hit_latency_hist::gmean     1.000007                      
system.ruby.Locked_RMW_Read.hit_latency_hist::stdev     0.043511                      
system.ruby.Locked_RMW_Read.hit_latency_hist |    50718207    100.00%    100.00% |          63      0.00%    100.00% |           0      0.00%    100.00% |           7      0.00%    100.00% |           2      0.00%    100.00% |           4      0.00%    100.00% |           0      0.00%    100.00% |           0      0.00%    100.00% |           0      0.00%    100.00% |           0      0.00%    100.00%
system.ruby.Locked_RMW_Read.hit_latency_hist::total     50718283                      
system.ruby.Locked_RMW_Write.latency_hist::bucket_size            1                      
system.ruby.Locked_RMW_Write.latency_hist::max_bucket            9                      
system.ruby.Locked_RMW_Write.latency_hist::samples     50718283                      
system.ruby.Locked_RMW_Write.latency_hist::mean            1                      
system.ruby.Locked_RMW_Write.latency_hist::gmean            1                      
system.ruby.Locked_RMW_Write.latency_hist |           0      0.00%      0.00% |    50718283    100.00%    100.00% |           0      0.00%    100.00% |           0      0.00%    100.00% |           0      0.00%    100.00% |           0      0.00%    100.00% |           0      0.00%    100.00% |           0      0.00%    100.00% |           0      0.00%    100.00% |           0      0.00%    100.00%
system.ruby.Locked_RMW_Write.latency_hist::total     50718283                      
system.ruby.Locked_RMW_Write.hit_latency_hist::bucket_size            1                      
system.ruby.Locked_RMW_Write.hit_latency_hist::max_bucket            9                      
system.ruby.Locked_RMW_Write.hit_latency_hist::samples     50718283                      
system.ruby.Locked_RMW_Write.hit_latency_hist::mean            1                      
system.ruby.Locked_RMW_Write.hit_latency_hist::gmean            1                      
system.ruby.Locked_RMW_Write.hit_latency_hist |           0      0.00%      0.00% |    50718283    100.00%    100.00% |           0      0.00%    100.00% |           0      0.00%    100.00% |           0      0.00%    100.00% |           0      0.00%    100.00% |           0      0.00%    100.00% |           0      0.00%    100.00% |           0      0.00%    100.00% |           0      0.00%    100.00%
system.ruby.Locked_RMW_Write.hit_latency_hist::total     50718283                      
system.ruby.Directory_Controller.Fetch        4063789      0.00%      0.00%
system.ruby.Directory_Controller.Data         1880717      0.00%      0.00%
system.ruby.Directory_Controller.Memory_Data      4063789      0.00%      0.00%
system.ruby.Directory_Controller.Memory_Ack      1880717      0.00%      0.00%
system.ruby.Directory_Controller.CleanReplacement      2143136      0.00%      0.00%
system.ruby.Directory_Controller.I.Fetch      4063789      0.00%      0.00%
system.ruby.Directory_Controller.M.Data       1880717      0.00%      0.00%
system.ruby.Directory_Controller.M.CleanReplacement      2143136      0.00%      0.00%
system.ruby.Directory_Controller.IM.Memory_Data      4063789      0.00%      0.00%
system.ruby.Directory_Controller.MI.Memory_Ack      1880717      0.00%      0.00%
system.ruby.L0Cache_Controller.Load      |   384953307     87.11%     87.11% |    28471647      6.44%     93.56% |    28471647      6.44%    100.00%
system.ruby.L0Cache_Controller.Load::total    441896601                      
system.ruby.L0Cache_Controller.Ifetch    |  2112866978     93.41%     93.41% |    74505690      3.29%     96.71% |    74505690      3.29%    100.00%
system.ruby.L0Cache_Controller.Ifetch::total   2261878358                      
system.ruby.L0Cache_Controller.Store     |   329738991     99.90%     99.90% |      161888      0.05%     99.95% |      161888      0.05%    100.00%
system.ruby.L0Cache_Controller.Store::total    330062767                      
system.ruby.L0Cache_Controller.Inv       |        8749      8.05%      8.05% |       52708     48.52%     56.58% |       47167     43.42%    100.00%
system.ruby.L0Cache_Controller.Inv::total       108624                      
system.ruby.L0Cache_Controller.L0_Replacement |     2168222     38.27%     38.27% |     1749709     30.89%     69.16% |     1746992     30.84%    100.00%
system.ruby.L0Cache_Controller.L0_Replacement::total      5664923                      
system.ruby.L0Cache_Controller.Data      |          19      0.15%      0.15% |        6179     48.51%     48.66% |        6540     51.34%    100.00%
system.ruby.L0Cache_Controller.Data::total        12738                      
system.ruby.L0Cache_Controller.Data_Exclusive |     2177651     37.81%     37.81% |     1794740     31.16%     68.98% |     1786513     31.02%    100.00%
system.ruby.L0Cache_Controller.Data_Exclusive::total      5758904                      
system.ruby.L0Cache_Controller.NP.Load   |        1654      0.05%      0.05% |     1793676     50.08%     50.13% |     1786288     49.87%    100.00%
system.ruby.L0Cache_Controller.NP.Load::total      3581618                      
system.ruby.L0Cache_Controller.NP.Ifetch |        3965     55.89%     55.89% |        1884     26.56%     82.45% |        1245     17.55%    100.00%
system.ruby.L0Cache_Controller.NP.Ifetch::total         7094                      
system.ruby.L0Cache_Controller.NP.Store  |     2172042     99.50%     99.50% |        5358      0.25%     99.75% |        5519      0.25%    100.00%
system.ruby.L0Cache_Controller.NP.Store::total      2182919                      
system.ruby.L0Cache_Controller.NP.Inv    |           1      0.03%      0.03% |        1513     47.25%     47.28% |        1688     52.72%    100.00%
system.ruby.L0Cache_Controller.NP.Inv::total         3202                      
system.ruby.L0Cache_Controller.S.Load    |     2526916     24.14%     24.14% |     3637862     34.75%     58.89% |     4302764     41.11%    100.00%
system.ruby.L0Cache_Controller.S.Load::total     10467542                      
system.ruby.L0Cache_Controller.S.Ifetch  |          48      0.00%      0.00% |    74503422     50.00%     50.00% |    74504060     50.00%    100.00%
[...]
system.ruby.L1Cache_Controller.L0_Invalidate_Own::total       162630                      
system.ruby.L1Cache_Controller.L0_Invalidate_Else |        5612     10.28%     10.28% |       24370     44.62%     54.89% |       24636     45.11%    100.00%
system.ruby.L1Cache_Controller.L0_Invalidate_Else::total        54618                      
system.ruby.L1Cache_Controller.L1_Replacement |     1197702     35.91%     35.91% |     1203773     36.09%     71.99% |      934214     28.01%    100.00%
system.ruby.L1Cache_Controller.L1_Replacement::total      3335689                      
system.ruby.L1Cache_Controller.Fwd_GETX  |           2     40.00%     40.00% |           2     40.00%     80.00% |           1     20.00%    100.00%
system.ruby.L1Cache_Controller.Fwd_GETX::total            5                      
system.ruby.L1Cache_Controller.Fwd_GETS  |          11      0.51%      0.51% |        1621     74.67%     75.17% |         539     24.83%    100.00%
system.ruby.L1Cache_Controller.Fwd_GETS::total         2171                      
system.ruby.L1Cache_Controller.Data_Exclusive |        5524      0.17%      0.17% |     1625368     50.06%     50.23% |     1616146     49.77%    100.00%
system.ruby.L1Cache_Controller.Data_Exclusive::total      3247038                      
system.ruby.L1Cache_Controller.DataS_fromL1 |          14      0.64%      0.64% |         534     24.60%     25.24% |        1623     74.76%    100.00%
system.ruby.L1Cache_Controller.DataS_fromL1::total         2171                      
system.ruby.L1Cache_Controller.Data_all_Acks |     2171973     99.11%     99.11% |        9568      0.44%     99.55% |        9916      0.45%    100.00%
system.ruby.L1Cache_Controller.Data_all_Acks::total      2191457                      
system.ruby.L1Cache_Controller.L0_Ack    |        3688      3.97%      3.97% |       47365     50.97%     54.94% |       41875     45.06%    100.00%
system.ruby.L1Cache_Controller.L0_Ack::total        92928                      
system.ruby.L1Cache_Controller.Ack       |          10     83.33%     83.33% |           1      8.33%     91.67% |           1      8.33%    100.00%
system.ruby.L1Cache_Controller.Ack::total           12                      
system.ruby.L1Cache_Controller.Ack_all   |           9     81.82%     81.82% |           1      9.09%     90.91% |           1      9.09%    100.00%
system.ruby.L1Cache_Controller.Ack_all::total           11                      
system.ruby.L1Cache_Controller.WB_Ack    |     1197702     36.04%     36.04% |     1197872     36.04%     72.08% |      928119     27.92%    100.00%
system.ruby.L1Cache_Controller.WB_Ack::total      3323693                      
system.ruby.L1Cache_Controller.NP.Load   |        5540      0.17%      0.17% |     1630113     50.04%     50.21% |     1622166     49.79%    100.00%
system.ruby.L1Cache_Controller.NP.Load::total      3257819                      
system.ruby.L1Cache_Controller.NP.Store  |     2171971     99.50%     99.50% |        5357      0.25%     99.75% |        5519      0.25%    100.00%
system.ruby.L1Cache_Controller.NP.Store::total      2182847                      
system.ruby.L1Cache_Controller.NP.Inv    |           0      0.00%      0.00% |        1734     49.87%     49.87% |        1743     50.13%    100.00%
system.ruby.L1Cache_Controller.NP.Inv::total         3477                      
system.ruby.L1Cache_Controller.I.L1_Replacement |           0      0.00%      0.00% |           2    100.00%    100.00% |           0      0.00%    100.00%
system.ruby.L1Cache_Controller.I.L1_Replacement::total            2                      
system.ruby.L1Cache_Controller.S.Load    |           1    100.00%    100.00% |           0      0.00%    100.00% |           0      0.00%    100.00%
system.ruby.L1Cache_Controller.S.Load::total            1                      
system.ruby.L1Cache_Controller.S.Store   |           9     81.82%     81.82% |           1      9.09%     90.91% |           1      9.09%    100.00%
system.ruby.L1Cache_Controller.S.Store::total           11                      
system.ruby.L1Cache_Controller.S.L0_Invalidate_Own |           0      0.00%      0.00% |        5771     48.64%     48.64% |        6094     51.36%    100.00%
system.ruby.L1Cache_Controller.S.L0_Invalidate_Own::total        11865                      
system.ruby.L1Cache_Controller.S.L0_Invalidate_Else |           5      0.59%      0.59% |         402     47.69%     48.28% |         436     51.72%    100.00%
system.ruby.L1Cache_Controller.S.L0_Invalidate_Else::total          843                      
system.ruby.L1Cache_Controller.SS.Load   |           2      0.10%      0.10% |        1434     73.31%     73.42% |         520     26.58%    100.00%
system.ruby.L1Cache_Controller.SS.Load::total         1956                      
system.ruby.L1Cache_Controller.SS.Inv    |          14      1.53%      1.53% |         450     49.23%     50.77% |         450     49.23%    100.00%
system.ruby.L1Cache_Controller.SS.Inv::total          914                      
system.ruby.L1Cache_Controller.SS.L1_Replacement |           0      0.00%      0.00% |        5899     49.18%     49.18% |        6095     50.82%    100.00%
system.ruby.L1Cache_Controller.SS.L1_Replacement::total        11994                      
system.ruby.L1Cache_Controller.E.WriteBack |         521      0.02%      0.02% |     1584639     50.05%     50.07% |     1580715     49.93%    100.00%
system.ruby.L1Cache_Controller.E.WriteBack::total      3165875                      
system.ruby.L1Cache_Controller.E.L0_Invalidate_Own |        3889      6.26%      6.26% |       31910     51.34%     57.60% |       26356     42.40%    100.00%
system.ruby.L1Cache_Controller.E.L0_Invalidate_Own::total        62155                      
system.ruby.L1Cache_Controller.E.L0_Invalidate_Else |         519      2.89%      2.89% |        8810     49.07%     51.96% |        8625     48.04%    100.00%
system.ruby.L1Cache_Controller.E.L0_Invalidate_Else::total        17954                      
system.ruby.L1Cache_Controller.EE.Load   |          10     71.43%     71.43% |           0      0.00%     71.43% |           4     28.57%    100.00%
system.ruby.L1Cache_Controller.EE.Load::total           14                      
system.ruby.L1Cache_Controller.EE.Inv    |         445      2.81%      2.81% |        7324     46.20%     49.01% |        8084     50.99%    100.00%
system.ruby.L1Cache_Controller.EE.Inv::total        15853                      
system.ruby.L1Cache_Controller.EE.L1_Replacement |        3187      5.23%      5.23% |       31688     52.04%     57.27% |       26020     42.73%    100.00%
system.ruby.L1Cache_Controller.EE.L1_Replacement::total        60895                      
system.ruby.L1Cache_Controller.EE.Fwd_GETX |           2     66.67%     66.67% |           0      0.00%     66.67% |           1     33.33%    100.00%
system.ruby.L1Cache_Controller.EE.Fwd_GETX::total            3                      
system.ruby.L1Cache_Controller.EE.Fwd_GETS |           5      0.25%      0.25% |        1439     72.82%     73.08% |         532     26.92%    100.00%
system.ruby.L1Cache_Controller.EE.Fwd_GETS::total         1976                      
system.ruby.L1Cache_Controller.M.WriteBack |     2167697     86.85%     86.85% |      163557      6.55%     93.41% |      164585      6.59%    100.00%
system.ruby.L1Cache_Controller.M.WriteBack::total      2495839                      
system.ruby.L1Cache_Controller.M.L0_Invalidate_Own |        2054     28.16%     28.16% |        2842     38.96%     67.11% |        2399     32.89%    100.00%
system.ruby.L1Cache_Controller.M.L0_Invalidate_Own::total         7295                      
system.ruby.L1Cache_Controller.M.L0_Invalidate_Else |        2282     26.81%     26.81% |        2973     34.93%     61.74% |        3257     38.26%    100.00%
system.ruby.L1Cache_Controller.M.L0_Invalidate_Else::total         8512                      
system.ruby.L1Cache_Controller.MM.Load   |          66      0.02%      0.02% |      164013     49.86%     49.88% |      164843     50.12%    100.00%
system.ruby.L1Cache_Controller.MM.Load::total       328922                      
system.ruby.L1Cache_Controller.MM.Store  |          71     98.61%     98.61% |           1      1.39%    100.00% |           0      0.00%    100.00%
system.ruby.L1Cache_Controller.MM.Store::total           72                      
system.ruby.L1Cache_Controller.MM.Inv    |      978585     46.96%     46.96% |      423898     20.34%     67.30% |      681512     32.70%    100.00%
system.ruby.L1Cache_Controller.MM.Inv::total      2083995                      
system.ruby.L1Cache_Controller.MM.L1_Replacement |     1194515     36.61%     36.61% |     1166184     35.74%     72.35% |      902099     27.65%    100.00%
system.ruby.L1Cache_Controller.MM.L1_Replacement::total      3262798                      
system.ruby.L1Cache_Controller.MM.Fwd_GETX |           0      0.00%      0.00% |           2    100.00%    100.00% |           0      0.00%    100.00%
system.ruby.L1Cache_Controller.MM.Fwd_GETX::total            2                      
system.ruby.L1Cache_Controller.MM.Fwd_GETS |           6      3.08%      3.08% |         182     93.33%     96.41% |           7      3.59%    100.00%
system.ruby.L1Cache_Controller.MM.Fwd_GETS::total          195                      
system.ruby.L1Cache_Controller.IS.Inv    |           0      0.00%      0.00% |           1    100.00%    100.00% |           0      0.00%    100.00%
system.ruby.L1Cache_Controller.IS.Inv::total            1                      
system.ruby.L1Cache_Controller.IS.Data_Exclusive |        5524      0.17%      0.17% |     1625367     50.06%     50.23% |     1616146     49.77%    100.00%
system.ruby.L1Cache_Controller.IS.Data_Exclusive::total      3247037                      
system.ruby.L1Cache_Controller.IS.DataS_fromL1 |          14      0.64%      0.64% |         534     24.60%     25.24% |        1623     74.76%    100.00%
system.ruby.L1Cache_Controller.IS.DataS_fromL1::total         2171                      
system.ruby.L1Cache_Controller.IS.Data_all_Acks |           2      0.02%      0.02% |        4211     48.91%     48.93% |        4397     51.07%    100.00%
system.ruby.L1Cache_Controller.IS.Data_all_Acks::total         8610                      
system.ruby.L1Cache_Controller.IM.Data_all_Acks |     2171971     99.50%     99.50% |        5357      0.25%     99.75% |        5519      0.25%    100.00%
system.ruby.L1Cache_Controller.IM.Data_all_Acks::total      2182847                      
system.ruby.L1Cache_Controller.SM.Ack    |          10     83.33%     83.33% |           1      8.33%     91.67% |           1      8.33%    100.00%
system.ruby.L1Cache_Controller.SM.Ack::total           12                      
system.ruby.L1Cache_Controller.SM.Ack_all |           9     81.82%     81.82% |           1      9.09%     90.91% |           1      9.09%    100.00%
system.ruby.L1Cache_Controller.SM.Ack_all::total           11                      
system.ruby.L1Cache_Controller.IS_I.Data_Exclusive |           0      0.00%      0.00% |           1    100.00%    100.00% |           0      0.00%    100.00%
system.ruby.L1Cache_Controller.IS_I.Data_Exclusive::total            1                      
system.ruby.L1Cache_Controller.M_I.Inv   |           0      0.00%      0.00% |           0      0.00%      0.00% |           1    100.00%    100.00%
system.ruby.L1Cache_Controller.M_I.Inv::total            1                      
system.ruby.L1Cache_Controller.M_I.WB_Ack |     1197702     36.04%     36.04% |     1197872     36.04%     72.08% |      928118     27.92%    100.00%
system.ruby.L1Cache_Controller.M_I.WB_Ack::total      3323692                      
system.ruby.L1Cache_Controller.SINK_WB_ACK.WB_Ack |           0      0.00%      0.00% |           0      0.00%      0.00% |           1    100.00%    100.00%
system.ruby.L1Cache_Controller.SINK_WB_ACK.WB_Ack::total            1                      
system.ruby.L1Cache_Controller.S_IL0.L0_Invalidate_Own |           0      0.00%      0.00% |        5771     48.64%     48.64% |        6094     51.36%    100.00%
system.ruby.L1Cache_Controller.S_IL0.L0_Invalidate_Own::total        11865                      
system.ruby.L1Cache_Controller.S_IL0.L0_Invalidate_Else |           5      0.59%      0.59% |         402     47.69%     48.28% |         436     51.72%    100.00%
system.ruby.L1Cache_Controller.S_IL0.L0_Invalidate_Else::total          843                      
system.ruby.L1Cache_Controller.S_IL0.L0_Ack |           5      0.04%      0.04% |        6173     48.58%     48.62% |        6530     51.38%    100.00%
system.ruby.L1Cache_Controller.S_IL0.L0_Ack::total        12708                      
system.ruby.L1Cache_Controller.E_IL0.L0_DataAck |         759     55.48%     55.48% |         269     19.66%     75.15% |         340     24.85%    100.00%
system.ruby.L1Cache_Controller.E_IL0.L0_DataAck::total         1368                      
system.ruby.L1Cache_Controller.E_IL0.L0_Invalidate_Own |        3889      6.26%      6.26% |       31910     51.34%     57.60% |       26356     42.40%    100.00%
system.ruby.L1Cache_Controller.E_IL0.L0_Invalidate_Own::total        62155                      
system.ruby.L1Cache_Controller.E_IL0.L0_Invalidate_Else |         519      2.89%      2.89% |        8810     49.07%     51.96% |        8625     48.04%    100.00%
system.ruby.L1Cache_Controller.E_IL0.L0_Invalidate_Else::total        17954                      
system.ruby.L1Cache_Controller.E_IL0.L0_Ack |        3649      4.63%      4.63% |       40451     51.37%     56.01% |       34641     43.99%    100.00%
system.ruby.L1Cache_Controller.E_IL0.L0_Ack::total        78741                      
system.ruby.L1Cache_Controller.M_IL0.L0_DataAck |        4302     30.03%     30.03% |        5074     35.41%     65.44% |        4952     34.56%    100.00%
system.ruby.L1Cache_Controller.M_IL0.L0_DataAck::total        14328                      
system.ruby.L1Cache_Controller.M_IL0.L0_Invalidate_Own |        2054     28.16%     28.16% |        2842     38.96%     67.11% |        2399     32.89%    100.00%
system.ruby.L1Cache_Controller.M_IL0.L0_Invalidate_Own::total         7295                      
system.ruby.L1Cache_Controller.M_IL0.L0_Invalidate_Else |        2282     26.81%     26.81% |        2973     34.93%     61.74% |        3257     38.26%    100.00%
system.ruby.L1Cache_Controller.M_IL0.L0_Invalidate_Else::total         8512                      
system.ruby.L1Cache_Controller.M_IL0.L0_Ack |          34      2.30%      2.30% |         741     50.10%     52.40% |         704     47.60%    100.00%
system.ruby.L1Cache_Controller.M_IL0.L0_Ack::total         1479                      
system.ruby.L2Cache_Controller.L1_GETS        3258735      0.00%      0.00%
system.ruby.L2Cache_Controller.L1_GETX        2182934      0.00%      0.00%
system.ruby.L2Cache_Controller.L1_UPGRADE           11      0.00%      0.00%
system.ruby.L2Cache_Controller.L1_PUTX        3323692      0.00%      0.00%
system.ruby.L2Cache_Controller.L1_PUTX_old            2      0.00%      0.00%
system.ruby.L2Cache_Controller.L2_Replacement       895858      0.00%      0.00%
system.ruby.L2Cache_Controller.L2_Replacement_clean      3127996      0.00%      0.00%
system.ruby.L2Cache_Controller.Mem_Data       4063789      0.00%      0.00%
system.ruby.L2Cache_Controller.Mem_Ack        4023853      0.00%      0.00%
system.ruby.L2Cache_Controller.WB_Data         986905      0.00%      0.00%
system.ruby.L2Cache_Controller.WB_Data_clean      1099262      0.00%      0.00%
system.ruby.L2Cache_Controller.Ack               2193      0.00%      0.00%
system.ruby.L2Cache_Controller.Ack_all          18040      0.00%      0.00%
system.ruby.L2Cache_Controller.Unblock           2171      0.00%      0.00%
system.ruby.L2Cache_Controller.Exclusive_Unblock      5429896      0.00%      0.00%
system.ruby.L2Cache_Controller.NP.L1_GETS      1881470      0.00%      0.00%
system.ruby.L2Cache_Controller.NP.L1_GETX      2182319      0.00%      0.00%
system.ruby.L2Cache_Controller.NP.L1_PUTX_old            1      0.00%      0.00%
system.ruby.L2Cache_Controller.SS.L1_GETS         8516      0.00%      0.00%
system.ruby.L2Cache_Controller.SS.L1_UPGRADE           11      0.00%      0.00%
system.ruby.L2Cache_Controller.SS.L2_Replacement         2063      0.00%      0.00%
system.ruby.L2Cache_Controller.SS.L2_Replacement_clean          124      0.00%      0.00%
system.ruby.L2Cache_Controller.M.L1_GETS      1365615      0.00%      0.00%
system.ruby.L2Cache_Controller.M.L1_GETX          523      0.00%      0.00%
system.ruby.L2Cache_Controller.M.L2_Replacement       892962      0.00%      0.00%
system.ruby.L2Cache_Controller.M.L2_Replacement_clean      1028855      0.00%      0.00%
system.ruby.L2Cache_Controller.MT.L1_GETS         2171      0.00%      0.00%
system.ruby.L2Cache_Controller.MT.L1_GETX            5      0.00%      0.00%
system.ruby.L2Cache_Controller.MT.L1_PUTX      3323692      0.00%      0.00%
system.ruby.L2Cache_Controller.MT.L2_Replacement          833      0.00%      0.00%
system.ruby.L2Cache_Controller.MT.L2_Replacement_clean      2099016      0.00%      0.00%
system.ruby.L2Cache_Controller.M_I.L1_GETS          907      0.00%      0.00%
system.ruby.L2Cache_Controller.M_I.L1_GETX           86      0.00%      0.00%
system.ruby.L2Cache_Controller.M_I.Mem_Ack      4023853      0.00%      0.00%
system.ruby.L2Cache_Controller.MT_I.WB_Data           57      0.00%      0.00%
system.ruby.L2Cache_Controller.MT_I.WB_Data_clean          289      0.00%      0.00%
system.ruby.L2Cache_Controller.MT_I.Ack_all          487      0.00%      0.00%
system.ruby.L2Cache_Controller.MCT_I.L1_GETS            2      0.00%      0.00%
system.ruby.L2Cache_Controller.MCT_I.L1_PUTX_old            1      0.00%      0.00%
system.ruby.L2Cache_Controller.MCT_I.WB_Data       984859      0.00%      0.00%
system.ruby.L2Cache_Controller.MCT_I.WB_Data_clean      1098791      0.00%      0.00%
system.ruby.L2Cache_Controller.MCT_I.Ack_all        15366      0.00%      0.00%
system.ruby.L2Cache_Controller.I_I.Ack            126      0.00%      0.00%
system.ruby.L2Cache_Controller.I_I.Ack_all          124      0.00%      0.00%
system.ruby.L2Cache_Controller.S_I.L1_GETS            1      0.00%      0.00%
system.ruby.L2Cache_Controller.S_I.Ack           2067      0.00%      0.00%
system.ruby.L2Cache_Controller.S_I.Ack_all         2063      0.00%      0.00%
system.ruby.L2Cache_Controller.ISS.L1_GETS           47      0.00%      0.00%
system.ruby.L2Cache_Controller.ISS.L2_Replacement_clean            1      0.00%      0.00%
system.ruby.L2Cache_Controller.ISS.Mem_Data      1881423      0.00%      0.00%
system.ruby.L2Cache_Controller.IS.Mem_Data           47      0.00%      0.00%
system.ruby.L2Cache_Controller.IM.L1_GETX            1      0.00%      0.00%
system.ruby.L2Cache_Controller.IM.Mem_Data      2182319      0.00%      0.00%
system.ruby.L2Cache_Controller.SS_MB.Exclusive_Unblock           11      0.00%      0.00%
system.ruby.L2Cache_Controller.MT_MB.L1_GETS            3      0.00%      0.00%
system.ruby.L2Cache_Controller.MT_MB.Exclusive_Unblock      5429885      0.00%      0.00%
system.ruby.L2Cache_Controller.MT_IIB.L1_GETS            3      0.00%      0.00%
system.ruby.L2Cache_Controller.MT_IIB.WB_Data         1966      0.00%      0.00%
system.ruby.L2Cache_Controller.MT_IIB.WB_Data_clean          179      0.00%      0.00%
system.ruby.L2Cache_Controller.MT_IIB.Unblock           26      0.00%      0.00%
system.ruby.L2Cache_Controller.MT_IB.WB_Data           23      0.00%      0.00%
system.ruby.L2Cache_Controller.MT_IB.WB_Data_clean            3      0.00%      0.00%
system.ruby.L2Cache_Controller.MT_SB.Unblock         2145      0.00%      0.00%

---------- End Simulation Statistics   ----------
