
---------- Begin Simulation Statistics ----------
sim_seconds                                  0.300511                       # Number of seconds simulated
sim_ticks                                300510871000                       # Number of ticks simulated
final_tick                               300510871000                       # Number of ticks from beginning of simulation (restored from checkpoints and never reset)
sim_freq                                 1000000000000                       # Frequency of simulated ticks
host_inst_rate                                  77581                       # Simulator instruction rate (inst/s)
host_op_rate                                   211952                       # Simulator op (including micro ops) rate (op/s)
host_tick_rate                              134391797                       # Simulator tick rate (ticks/s)
host_mem_usage                                 810372                       # Number of bytes of host memory used
host_seconds                                  2236.08                       # Real time elapsed on the host
sim_insts                                   173476243                       # Number of instructions simulated
sim_ops                                     473942768                       # Number of ops (including micro ops) simulated
system.voltage_domain.voltage                       1                       # Voltage in Volts
system.clk_domain.clock                          1000                       # Clock period in ticks
system.mem_ctrls.bytes_read::ruby.dir_cntrl0     15385280                       # Number of bytes read from this memory
system.mem_ctrls.bytes_read::total           15385280                       # Number of bytes read from this memory
system.mem_ctrls.bytes_written::ruby.dir_cntrl0      9855296                       # Number of bytes written to this memory
system.mem_ctrls.bytes_written::total         9855296                       # Number of bytes written to this memory
system.mem_ctrls.num_reads::ruby.dir_cntrl0       240395                       # Number of read requests responded to by this memory
system.mem_ctrls.num_reads::total              240395                       # Number of read requests responded to by this memory
system.mem_ctrls.num_writes::ruby.dir_cntrl0       153989                       # Number of write requests responded to by this memory
system.mem_ctrls.num_writes::total             153989                       # Number of write requests responded to by this memory
system.mem_ctrls.bw_read::ruby.dir_cntrl0     51197083                       # Total read bandwidth from this memory (bytes/s)
system.mem_ctrls.bw_read::total              51197083                       # Total read bandwidth from this memory (bytes/s)
system.mem_ctrls.bw_write::ruby.dir_cntrl0     32795140                       # Write bandwidth from this memory (bytes/s)
system.mem_ctrls.bw_write::total             32795140                       # Write bandwidth from this memory (bytes/s)
system.mem_ctrls.bw_total::ruby.dir_cntrl0     83992223                       # Total bandwidth to/from this memory (bytes/s)
system.mem_ctrls.bw_total::total             83992223                       # Total bandwidth to/from this memory (bytes/s)
system.mem_ctrls.readReqs                      240395                       # Number of read requests accepted
system.mem_ctrls.writeReqs                     153989                       # Number of write requests accepted
system.mem_ctrls.readBursts                    240395                       # Number of DRAM read bursts, including those serviced by the write queue
system.mem_ctrls.writeBursts                   153989                       # Number of DRAM write bursts, including those merged in the write queue
system.mem_ctrls.bytesReadDRAM               15385024                       # Total number of bytes read from DRAM
system.mem_ctrls.bytesReadWrQ                     256                       # Total number of bytes read from write queue
system.mem_ctrls.bytesWritten                 9853952                       # Total number of bytes written to DRAM
system.mem_ctrls.bytesReadSys                15385280                       # Total read bytes from the system interface side
system.mem_ctrls.bytesWrittenSys              9855296                       # Total written bytes from the system interface side
system.mem_ctrls.servicedByWrQ                      4                       # Number of DRAM read bursts serviced by the write queue
system.mem_ctrls.mergedWrBursts                     0                       # Number of DRAM write bursts merged with an existing one
system.mem_ctrls.neitherReadNorWriteReqs            0                       # Number of requests that are neither read nor write
system.mem_ctrls.perBankRdBursts::0             14991                       # Per bank write bursts
system.mem_ctrls.perBankRdBursts::1             15017                       # Per bank write bursts
system.mem_ctrls.perBankRdBursts::2             14978                       # Per bank write bursts
system.mem_ctrls.perBankRdBursts::3             14890                       # Per bank write bursts
system.mem_ctrls.perBankRdBursts::4             15126                       # Per bank write bursts
system.mem_ctrls.perBankRdBursts::5             14885                       # Per bank write bursts
system.mem_ctrls.perBankRdBursts::6             14623                       # Per bank write bursts
system.mem_ctrls.perBankRdBursts::7             14663                       # Per bank write bursts
system.mem_ctrls.perBankRdBursts::8             14947                       # Per bank write bursts
system.mem_ctrls.perBankRdBursts::9             15193                       # Per bank write bursts
system.mem_ctrls.perBankRdBursts::10            15333                       # Per bank write bursts
system.mem_ctrls.perBankRdBursts::11            15383                       # Per bank write bursts
system.mem_ctrls.perBankRdBursts::12            15194                       # Per bank write bursts
system.mem_ctrls.perBankRdBursts::13            15104                       # Per bank write bursts
system.mem_ctrls.perBankRdBursts::14            15017                       # Per bank write bursts
system.mem_ctrls.perBankRdBursts::15            15047                       # Per bank write bursts
system.mem_ctrls.perBankWrBursts::0              9638                       # Per bank write bursts
system.mem_ctrls.perBankWrBursts::1              9676                       # Per bank write bursts
system.mem_ctrls.perBankWrBursts::2              9639                       # Per bank write bursts
system.mem_ctrls.perBankWrBursts::3              9611                       # Per bank write bursts
system.mem_ctrls.perBankWrBursts::4              9723                       # Per bank write bursts
system.mem_ctrls.perBankWrBursts::5              9457                       # Per bank write bursts
system.mem_ctrls.perBankWrBursts::6              8985                       # Per bank write bursts
system.mem_ctrls.perBankWrBursts::7              9443                       # Per bank write bursts
system.mem_ctrls.perBankWrBursts::8              9488                       # Per bank write bursts
system.mem_ctrls.perBankWrBursts::9              9728                       # Per bank write bursts
system.mem_ctrls.perBankWrBursts::10             9859                       # Per bank write bursts
system.mem_ctrls.perBankWrBursts::11             9921                       # Per bank write bursts
system.mem_ctrls.perBankWrBursts::12             9759                       # Per bank write bursts
system.mem_ctrls.perBankWrBursts::13             9714                       # Per bank write bursts
system.mem_ctrls.perBankWrBursts::14             9714                       # Per bank write bursts
system.mem_ctrls.perBankWrBursts::15             9613                       # Per bank write bursts
system.mem_ctrls.numRdRetry                         0                       # Number of times read queue was full causing retry
system.mem_ctrls.numWrRetry                         0                       # Number of times write queue was full causing retry
system.mem_ctrls.totGap                  300510790500                       # Total gap between requests
system.mem_ctrls.readPktSize::0                     0                       # Read request sizes (log2)
system.mem_ctrls.readPktSize::1                     0                       # Read request sizes (log2)
system.mem_ctrls.readPktSize::2                     0                       # Read request sizes (log2)
system.mem_ctrls.readPktSize::3                     0                       # Read request sizes (log2)
system.mem_ctrls.readPktSize::4                     0                       # Read request sizes (log2)
system.mem_ctrls.readPktSize::5                     0                       # Read request sizes (log2)
system.mem_ctrls.readPktSize::6                240395                       # Read request sizes (log2)
system.mem_ctrls.writePktSize::0                    0                       # Write request sizes (log2)
system.mem_ctrls.writePktSize::1                    0                       # Write request sizes (log2)
system.mem_ctrls.writePktSize::2                    0                       # Write request sizes (log2)
system.mem_ctrls.writePktSize::3                    0                       # Write request sizes (log2)
system.mem_ctrls.writePktSize::4                    0                       # Write request sizes (log2)
system.mem_ctrls.writePktSize::5                    0                       # Write request sizes (log2)
system.mem_ctrls.writePktSize::6               153989                       # Write request sizes (log2)
system.mem_ctrls.rdQLenPdf::0                  240387                       # What read queue length does an incoming req see
system.mem_ctrls.rdQLenPdf::1                       4                       # What read queue length does an incoming req see
system.mem_ctrls.rdQLenPdf::2                       0                       # What read queue length does an incoming req see
system.mem_ctrls.rdQLenPdf::3                       0                       # What read queue length does an incoming req see
system.mem_ctrls.rdQLenPdf::4                       0                       # What read queue length does an incoming req see
system.mem_ctrls.rdQLenPdf::5                       0                       # What read queue length does an incoming req see
system.mem_ctrls.rdQLenPdf::6                       0                       # What read queue length does an incoming req see
system.mem_ctrls.rdQLenPdf::7                       0                       # What read queue length does an incoming req see
system.mem_ctrls.rdQLenPdf::8                       0                       # What read queue length does an incoming req see
system.mem_ctrls.rdQLenPdf::9                       0                       # What read queue length does an incoming req see
system.mem_ctrls.rdQLenPdf::10                      0                       # What read queue length does an incoming req see
system.mem_ctrls.rdQLenPdf::11                      0                       # What read queue length does an incoming req see
system.mem_ctrls.rdQLenPdf::12                      0                       # What read queue length does an incoming req see
system.mem_ctrls.rdQLenPdf::13                      0                       # What read queue length does an incoming req see
system.mem_ctrls.rdQLenPdf::14                      0                       # What read queue length does an incoming req see
system.mem_ctrls.rdQLenPdf::15                      0                       # What read queue length does an incoming req see
system.mem_ctrls.rdQLenPdf::16                      0                       # What read queue length does an incoming req see
system.mem_ctrls.rdQLenPdf::17                      0                       # What read queue length does an incoming req see
system.mem_ctrls.rdQLenPdf::18                      0                       # What read queue length does an incoming req see
system.mem_ctrls.rdQLenPdf::19                      0                       # What read queue length does an incoming req see
system.mem_ctrls.rdQLenPdf::20                      0                       # What read queue length does an incoming req see
system.mem_ctrls.rdQLenPdf::21                      0                       # What read queue length does an incoming req see
system.mem_ctrls.rdQLenPdf::22                      0                       # What read queue length does an incoming req see
system.mem_ctrls.rdQLenPdf::23                      0                       # What read queue length does an incoming req see
system.mem_ctrls.rdQLenPdf::24                      0                       # What read queue length does an incoming req see
system.mem_ctrls.rdQLenPdf::25                      0                       # What read queue length does an incoming req see
system.mem_ctrls.rdQLenPdf::26                      0                       # What read queue length does an incoming req see
system.mem_ctrls.rdQLenPdf::27                      0                       # What read queue length does an incoming req see
system.mem_ctrls.rdQLenPdf::28                      0                       # What read queue length does an incoming req see
system.mem_ctrls.rdQLenPdf::29                      0                       # What read queue length does an incoming req see
system.mem_ctrls.rdQLenPdf::30                      0                       # What read queue length does an incoming req see
system.mem_ctrls.rdQLenPdf::31                      0                       # What read queue length does an incoming req see
system.mem_ctrls.wrQLenPdf::0                       1                       # What write queue length does an incoming req see
system.mem_ctrls.wrQLenPdf::1                       1                       # What write queue length does an incoming req see
system.mem_ctrls.wrQLenPdf::2                       1                       # What write queue length does an incoming req see
system.mem_ctrls.wrQLenPdf::3                       1                       # What write queue length does an incoming req see
system.mem_ctrls.wrQLenPdf::4                       1                       # What write queue length does an incoming req see
system.mem_ctrls.wrQLenPdf::5                       1                       # What write queue length does an incoming req see
system.mem_ctrls.wrQLenPdf::6                       1                       # What write queue length does an incoming req see
system.mem_ctrls.wrQLenPdf::7                       1                       # What write queue length does an incoming req see
system.mem_ctrls.wrQLenPdf::8                       1                       # What write queue length does an incoming req see
system.mem_ctrls.wrQLenPdf::9                       1                       # What write queue length does an incoming req see
system.mem_ctrls.wrQLenPdf::10                      1                       # What write queue length does an incoming req see
system.mem_ctrls.wrQLenPdf::11                      1                       # What write queue length does an incoming req see
system.mem_ctrls.wrQLenPdf::12                      1                       # What write queue length does an incoming req see
system.mem_ctrls.wrQLenPdf::13                      1                       # What write queue length does an incoming req see
system.mem_ctrls.wrQLenPdf::14                      1                       # What write queue length does an incoming req see
system.mem_ctrls.wrQLenPdf::15                    421                       # What write queue length does an incoming req see
system.mem_ctrls.wrQLenPdf::16                    557                       # What write queue length does an incoming req see
system.mem_ctrls.wrQLenPdf::17                   9549                       # What write queue length does an incoming req see
system.mem_ctrls.wrQLenPdf::18                   9563                       # What write queue length does an incoming req see
system.mem_ctrls.wrQLenPdf::19                   9566                       # What write queue length does an incoming req see
system.mem_ctrls.wrQLenPdf::20                   9565                       # What write queue length does an incoming req see
system.mem_ctrls.wrQLenPdf::21                   9563                       # What write queue length does an incoming req see
system.mem_ctrls.wrQLenPdf::22                   9563                       # What write queue length does an incoming req see
system.mem_ctrls.wrQLenPdf::23                   9563                       # What write queue length does an incoming req see
system.mem_ctrls.wrQLenPdf::24                   9563                       # What write queue length does an incoming req see
system.mem_ctrls.wrQLenPdf::25                   9563                       # What write queue length does an incoming req see
system.mem_ctrls.wrQLenPdf::26                   9562                       # What write queue length does an incoming req see
system.mem_ctrls.wrQLenPdf::27                   9562                       # What write queue length does an incoming req see
system.mem_ctrls.wrQLenPdf::28                   9563                       # What write queue length does an incoming req see
system.mem_ctrls.wrQLenPdf::29                   9562                       # What write queue length does an incoming req see
system.mem_ctrls.wrQLenPdf::30                   9565                       # What write queue length does an incoming req see
system.mem_ctrls.wrQLenPdf::31                   9562                       # What write queue length does an incoming req see
system.mem_ctrls.wrQLenPdf::32                   9562                       # What write queue length does an incoming req see
system.mem_ctrls.wrQLenPdf::33                      0                       # What write queue length does an incoming req see
system.mem_ctrls.wrQLenPdf::34                      0                       # What write queue length does an incoming req see
system.mem_ctrls.wrQLenPdf::35                      0                       # What write queue length does an incoming req see
system.mem_ctrls.wrQLenPdf::36                      0                       # What write queue length does an incoming req see
system.mem_ctrls.wrQLenPdf::37                      0                       # What write queue length does an incoming req see
system.mem_ctrls.wrQLenPdf::38                      0                       # What write queue length does an incoming req see
system.mem_ctrls.wrQLenPdf::39                      0                       # What write queue length does an incoming req see
system.mem_ctrls.wrQLenPdf::40                      0                       # What write queue length does an incoming req see
system.mem_ctrls.wrQLenPdf::41                      0                       # What write queue length does an incoming req see
system.mem_ctrls.wrQLenPdf::42                      0                       # What write queue length does an incoming req see
system.mem_ctrls.wrQLenPdf::43                      0                       # What write queue length does an incoming req see
system.mem_ctrls.wrQLenPdf::44                      0                       # What write queue length does an incoming req see
system.mem_ctrls.wrQLenPdf::45                      0                       # What write queue length does an incoming req see
system.mem_ctrls.wrQLenPdf::46                      0                       # What write queue length does an incoming req see
system.mem_ctrls.wrQLenPdf::47                      0                       # What write queue length does an incoming req see
system.mem_ctrls.wrQLenPdf::48                      0                       # What write queue length does an incoming req see
system.mem_ctrls.wrQLenPdf::49                      0                       # What write queue length does an incoming req see
system.mem_ctrls.wrQLenPdf::50                      0                       # What write queue length does an incoming req see
system.mem_ctrls.wrQLenPdf::51                      0                       # What write queue length does an incoming req see
system.mem_ctrls.wrQLenPdf::52                      0                       # What write queue length does an incoming req see
system.mem_ctrls.wrQLenPdf::53                      0                       # What write queue length does an incoming req see
system.mem_ctrls.wrQLenPdf::54                      0                       # What write queue length does an incoming req see
system.mem_ctrls.wrQLenPdf::55                      0                       # What write queue length does an incoming req see
system.mem_ctrls.wrQLenPdf::56                      0                       # What write queue length does an incoming req see
system.mem_ctrls.wrQLenPdf::57                      0                       # What write queue length does an incoming req see
system.mem_ctrls.wrQLenPdf::58                      0                       # What write queue length does an incoming req see
system.mem_ctrls.wrQLenPdf::59                      0                       # What write queue length does an incoming req see
system.mem_ctrls.wrQLenPdf::60                      0                       # What write queue length does an incoming req see
system.mem_ctrls.wrQLenPdf::61                      0                       # What write queue length does an incoming req see
system.mem_ctrls.wrQLenPdf::62                      0                       # What write queue length does an incoming req see
system.mem_ctrls.wrQLenPdf::63                      0                       # What write queue length does an incoming req see
system.mem_ctrls.bytesPerActivate::samples        62984                       # Bytes accessed per row activation
system.mem_ctrls.bytesPerActivate::mean    400.717389                       # Bytes accessed per row activation
system.mem_ctrls.bytesPerActivate::gmean   300.463623                       # Bytes accessed per row activation
system.mem_ctrls.bytesPerActivate::stdev   316.303611                       # Bytes accessed per row activation
system.mem_ctrls.bytesPerActivate::0-127         5672      9.01%      9.01% # Bytes accessed per row activation
system.mem_ctrls.bytesPerActivate::128-255         7514     11.93%     20.94% # Bytes accessed per row activation
system.mem_ctrls.bytesPerActivate::256-383        32606     51.77%     72.70% # Bytes accessed per row activation
system.mem_ctrls.bytesPerActivate::384-511         2120      3.37%     76.07% # Bytes accessed per row activation
system.mem_ctrls.bytesPerActivate::512-639         1283      2.04%     78.11% # Bytes accessed per row activation
system.mem_ctrls.bytesPerActivate::640-767         1095      1.74%     79.85% # Bytes accessed per row activation
system.mem_ctrls.bytesPerActivate::768-895         1120      1.78%     81.62% # Bytes accessed per row activation
system.mem_ctrls.bytesPerActivate::896-1023         1482      2.35%     83.98% # Bytes accessed per row activation
system.mem_ctrls.bytesPerActivate::1024-1151        10092     16.02%    100.00% # Bytes accessed per row activation
system.mem_ctrls.bytesPerActivate::total        62984                       # Bytes accessed per row activation
system.mem_ctrls.rdPerTurnAround::samples         9562                       # Reads before turning the bus around for writes
system.mem_ctrls.rdPerTurnAround::mean      24.981803                       # Reads before turning the bus around for writes
system.mem_ctrls.rdPerTurnAround::gmean     16.395538                       # Reads before turning the bus around for writes
system.mem_ctrls.rdPerTurnAround::stdev    612.640508                       # Reads before turning the bus around for writes
system.mem_ctrls.rdPerTurnAround::0-2047         9557     99.95%     99.95% # Reads before turning the bus around for writes
system.mem_ctrls.rdPerTurnAround::2048-4095            4      0.04%     99.99% # Reads before turning the bus around for writes
system.mem_ctrls.rdPerTurnAround::59392-61439            1      0.01%    100.00% # Reads before turning the bus around for writes
system.mem_ctrls.rdPerTurnAround::total          9562                       # Reads before turning the bus around for writes
system.mem_ctrls.wrPerTurnAround::samples         9562                       # Writes before turning the bus around for reads
system.mem_ctrls.wrPerTurnAround::mean      16.102071                       # Writes before turning the bus around for reads
system.mem_ctrls.wrPerTurnAround::gmean     16.096467                       # Writes before turning the bus around for reads
system.mem_ctrls.wrPerTurnAround::stdev      0.440163                       # Writes before turning the bus around for reads
system.mem_ctrls.wrPerTurnAround::16             9074     94.90%     94.90% # Writes before turning the bus around for reads
system.mem_ctrls.wrPerTurnAround::18              488      5.10%    100.00% # Writes before turning the bus around for reads
system.mem_ctrls.wrPerTurnAround::total          9562                       # Writes before turning the bus around for reads
system.mem_ctrls.totQLat                   3154316749                       # Total ticks spent queuing
system.mem_ctrls.totMemAccLat              7661647999                       # Total ticks spent from burst creation until serviced by the DRAM
system.mem_ctrls.totBusLat                 1201955000                       # Total ticks spent in databus transfers
system.mem_ctrls.avgQLat                     13121.61                       # Average queueing delay per DRAM burst
system.mem_ctrls.avgBusLat                    5000.00                       # Average bus latency per DRAM burst
system.mem_ctrls.avgMemAccLat                31871.61                       # Average memory access latency per DRAM burst
system.mem_ctrls.avgRdBW                        51.20                       # Average DRAM read bandwidth in MiByte/s
system.mem_ctrls.avgWrBW                        32.79                       # Average achieved write bandwidth in MiByte/s
system.mem_ctrls.avgRdBWSys                     51.20                       # Average system read bandwidth in MiByte/s
system.mem_ctrls.avgWrBWSys                     32.80                       # Average system write bandwidth in MiByte/s
system.mem_ctrls.peakBW                      12800.00                       # Theoretical peak bandwidth in MiByte/s
system.mem_ctrls.busUtil                         0.66                       # Data bus utilization in percentage
system.mem_ctrls.busUtilRead                     0.40                       # Data bus utilization in percentage for reads
system.mem_ctrls.busUtilWrite                    0.26                       # Data bus utilization in percentage for writes
system.mem_ctrls.avgRdQLen                       1.00                       # Average read queue length when enqueuing
system.mem_ctrls.avgWrQLen                      17.21                       # Average write queue length when enqueuing
system.mem_ctrls.readRowHits                   191738                       # Number of row buffer hits during reads
system.mem_ctrls.writeRowHits                  139634                       # Number of row buffer hits during writes
system.mem_ctrls.readRowHitRate                 79.76                       # Row buffer hit rate for reads
system.mem_ctrls.writeRowHitRate                90.68                       # Row buffer hit rate for writes
system.mem_ctrls.avgGap                     761975.11                       # Average gap between requests
system.mem_ctrls.pageHitRate                    84.02                       # Row buffer hit rate, read and write combined
system.mem_ctrls_0.actEnergy                239485680                       # Energy for activate commands per rank (pJ)
system.mem_ctrls_0.preEnergy                130671750                       # Energy for precharge commands per rank (pJ)
system.mem_ctrls_0.readEnergy               929541600                       # Energy for read commands per rank (pJ)
system.mem_ctrls_0.writeEnergy              493594560                       # Energy for write commands per rank (pJ)
system.mem_ctrls_0.refreshEnergy          19627873200                       # Energy for refresh commands per rank (pJ)
system.mem_ctrls_0.actBackEnergy          94695284745                       # Energy for active background per rank (pJ)
system.mem_ctrls_0.preBackEnergy          97240308000                       # Energy for precharge background per rank (pJ)
system.mem_ctrls_0.totalEnergy           213356759535                       # Total energy per rank (pJ)
system.mem_ctrls_0.averagePower            709.980861                       # Core power per rank (mW)
system.mem_ctrls_0.memoryStateTime::IDLE 161159597250                       # Time in different power states
system.mem_ctrls_0.memoryStateTime::REF   10034700000                       # Time in different power states
system.mem_ctrls_0.memoryStateTime::PRE_PDN            0                       # Time in different power states
system.mem_ctrls_0.memoryStateTime::ACT  129316394750                       # Time in different power states
system.mem_ctrls_0.memoryStateTime::ACT_PDN            0                       # Time in different power states
system.mem_ctrls_1.actEnergy                236673360                       # Energy for activate commands per rank (pJ)
system.mem_ctrls_1.preEnergy                129137250                       # Energy for precharge commands per rank (pJ)
system.mem_ctrls_1.readEnergy               945484800                       # Energy for read commands per rank (pJ)
system.mem_ctrls_1.writeEnergy              504118080                       # Energy for write commands per rank (pJ)
system.mem_ctrls_1.refreshEnergy          19627873200                       # Energy for refresh commands per rank (pJ)
system.mem_ctrls_1.actBackEnergy          95136989715                       # Energy for active background per rank (pJ)
system.mem_ctrls_1.preBackEnergy          96852847500                       # Energy for precharge background per rank (pJ)
system.mem_ctrls_1.totalEnergy           213433123905                       # Total energy per rank (pJ)
system.mem_ctrls_1.averagePower            710.234977                       # Core power per rank (mW)
system.mem_ctrls_1.memoryStateTime::IDLE 160512201000                       # Time in different power states
system.mem_ctrls_1.memoryStateTime::REF   10034700000                       # Time in different power states
system.mem_ctrls_1.memoryStateTime::PRE_PDN            0                       # Time in different power states
system.mem_ctrls_1.memoryStateTime::ACT  129963691500                       # Time in different power states
system.mem_ctrls_1.memoryStateTime::ACT_PDN            0                       # Time in different power states
system.cpu_voltage_domain.voltage                   1                       # Voltage in Volts
system.cpu_clk_domain.clock                       500                       # Clock period in ticks
system.cpu0.apic_clk_domain.clock                8000                       # Clock period in ticks
system.cpu0.workload.num_syscalls                  67                       # Number of system calls
system.cpu0.numCycles                       601021742                       # number of cpu cycles simulated
system.cpu0.numWorkItemsStarted                     0                       # number of work items this cpu started
system.cpu0.numWorkItemsCompleted                   0                       # number of work items this cpu completed
system.cpu0.committedInsts                  166217127                       # Number of instructions committed
system.cpu0.committedOps                    459425329                       # Number of ops (including micro ops) committed
system.cpu0.num_int_alu_accesses            434722403                       # Number of integer alu accesses
system.cpu0.num_fp_alu_accesses              11315280                       # Number of float alu accesses
system.cpu0.num_func_calls                   15260472                       # number of times a function call or return occured
system.cpu0.num_conditional_control_insts     35432120                       # number of instructions that are conditional controls
system.cpu0.num_int_insts                   434722403                       # number of integer instructions
system.cpu0.num_fp_insts                     11315280                       # number of float instructions
system.cpu0.num_int_register_reads          917551813                       # number of times the integer registers were read
system.cpu0.num_int_register_writes         430872028                       # number of times the integer registers were written
system.cpu0.num_fp_register_reads            18168976                       # number of times the floating registers were read
system.cpu0.num_fp_register_writes            8924254                       # number of times the floating registers were written
system.cpu0.num_cc_register_reads           364498882                       # number of times the CC registers were read
system.cpu0.num_cc_register_writes          137248745                       # number of times the CC registers were written
system.cpu0.num_mem_refs                     72830611                       # number of memory refs
system.cpu0.num_load_insts                   45176944                       # Number of load instructions
system.cpu0.num_store_insts                  27653667                       # Number of store instructions
system.cpu0.num_idle_cycles                  0.002000                       # Number of idle cycles
system.cpu0.num_busy_cycles              601021741.998000                       # Number of busy cycles
system.cpu0.not_idle_fraction                1.000000                       # Percentage of non-idle cycles
system.cpu0.idle_fraction                    0.000000                       # Percentage of idle cycles
system.cpu0.Branches                         58005098                       # Number of branches fetched
system.cpu0.op_class::No_OpClass              7679142      1.67%      1.67% # Class of executed instruction
system.cpu0.op_class::IntAlu                331889882     72.24%     73.91% # Class of executed instruction
system.cpu0.op_class::IntMult                     316      0.00%     73.91% # Class of executed instruction
system.cpu0.op_class::IntDiv                 38101884      8.29%     82.21% # Class of executed instruction
system.cpu0.op_class::FloatAdd                8923494      1.94%     84.15% # Class of executed instruction
system.cpu0.op_class::FloatCmp                      0      0.00%     84.15% # Class of executed instruction
system.cpu0.op_class::FloatCvt                      0      0.00%     84.15% # Class of executed instruction
system.cpu0.op_class::FloatMult                     0      0.00%     84.15% # Class of executed instruction
system.cpu0.op_class::FloatDiv                      0      0.00%     84.15% # Class of executed instruction
system.cpu0.op_class::FloatSqrt                     0      0.00%     84.15% # Class of executed instruction
system.cpu0.op_class::SimdAdd                       0      0.00%     84.15% # Class of executed instruction
system.cpu0.op_class::SimdAddAcc                    0      0.00%     84.15% # Class of executed instruction
system.cpu0.op_class::SimdAlu                       0      0.00%     84.15% # Class of executed instruction
system.cpu0.op_class::SimdCmp                       0      0.00%     84.15% # Class of executed instruction
system.cpu0.op_class::SimdCvt                       0      0.00%     84.15% # Class of executed instruction
system.cpu0.op_class::SimdMisc                      0      0.00%     84.15% # Class of executed instruction
system.cpu0.op_class::SimdMult                      0      0.00%     84.15% # Class of executed instruction
system.cpu0.op_class::SimdMultAcc                   0      0.00%     84.15% # Class of executed instruction
system.cpu0.op_class::SimdShift                     0      0.00%     84.15% # Class of executed instruction
system.cpu0.op_class::SimdShiftAcc                  0      0.00%     84.15% # Class of executed instruction
system.cpu0.op_class::SimdSqrt                      0      0.00%     84.15% # Class of executed instruction
system.cpu0.op_class::SimdFloatAdd                  0      0.00%     84.15% # Class of executed instruction
system.cpu0.op_class::SimdFloatAlu                  0      0.00%     84.15% # Class of executed instruction
system.cpu0.op_class::SimdFloatCmp                  0      0.00%     84.15% # Class of executed instruction
system.cpu0.op_class::SimdFloatCvt                  0      0.00%     84.15% # Class of executed instruction
system.cpu0.op_class::SimdFloatDiv                  0      0.00%     84.15% # Class of executed instruction
system.cpu0.op_class::SimdFloatMisc                 0      0.00%     84.15% # Class of executed instruction
system.cpu0.op_class::SimdFloatMult                 0      0.00%     84.15% # Class of executed instruction
system.cpu0.op_class::SimdFloatMultAcc              0      0.00%     84.15% # Class of executed instruction
system.cpu0.op_class::SimdFloatSqrt                 0      0.00%     84.15% # Class of executed instruction
system.cpu0.op_class::MemRead                45176944      9.83%     93.98% # Class of executed instruction
system.cpu0.op_class::MemWrite               27653667      6.02%    100.00% # Class of executed instruction
system.cpu0.op_class::IprAccess                     0      0.00%    100.00% # Class of executed instruction
system.cpu0.op_class::InstPrefetch                  0      0.00%    100.00% # Class of executed instruction
system.cpu0.op_class::total                 459425329                       # Class of executed instruction
system.cpu1.apic_clk_domain.clock                8000                       # Clock period in ticks
system.cpu1.numCycles                       600765550                       # number of cpu cycles simulated
system.cpu1.numWorkItemsStarted                     0                       # number of work items this cpu started
system.cpu1.numWorkItemsCompleted                   0                       # number of work items this cpu completed
system.cpu1.committedInsts                    7259116                       # Number of instructions committed
system.cpu1.committedOps                     14517439                       # Number of ops (including micro ops) committed
system.cpu1.num_int_alu_accesses             10896331                       # Number of integer alu accesses
system.cpu1.num_fp_alu_accesses               7110779                       # Number of float alu accesses
system.cpu1.num_func_calls                      20271                       # number of times a function call or return occured
system.cpu1.num_conditional_control_insts       891716                       # number of instructions that are conditional controls
system.cpu1.num_int_insts                    10896331                       # number of integer instructions
system.cpu1.num_fp_insts                      7110779                       # number of float instructions
system.cpu1.num_int_register_reads           19148888                       # number of times the integer registers were read
system.cpu1.num_int_register_writes           6503896                       # number of times the integer registers were written
system.cpu1.num_fp_register_reads            10772321                       # number of times the floating registers were read
system.cpu1.num_fp_register_writes            7100664                       # number of times the floating registers were written
system.cpu1.num_cc_register_reads             5360452                       # number of times the CC registers were read
system.cpu1.num_cc_register_writes            5357246                       # number of times the CC registers were written
system.cpu1.num_mem_refs                      3542079                       # number of memory refs
system.cpu1.num_load_insts                    3521742                       # Number of load instructions
system.cpu1.num_store_insts                     20337                       # Number of store instructions
system.cpu1.num_idle_cycles              559211862.261177                       # Number of idle cycles
system.cpu1.num_busy_cycles              41553687.738823                       # Number of busy cycles
system.cpu1.not_idle_fraction                0.069168                       # Percentage of non-idle cycles
system.cpu1.idle_fraction                    0.930832                       # Percentage of idle cycles
system.cpu1.Branches                           922894                       # Number of branches fetched
system.cpu1.op_class::No_OpClass                    2      0.00%      0.00% # Class of executed instruction
system.cpu1.op_class::IntAlu                  7323896     50.45%     50.45% # Class of executed instruction
system.cpu1.op_class::IntMult                   30341      0.21%     50.66% # Class of executed instruction
system.cpu1.op_class::IntDiv                       14      0.00%     50.66% # Class of executed instruction
system.cpu1.op_class::FloatAdd                3621107     24.94%     75.60% # Class of executed instruction
system.cpu1.op_class::FloatCmp                      0      0.00%     75.60% # Class of executed instruction
system.cpu1.op_class::FloatCvt                      0      0.00%     75.60% # Class of executed instruction
system.cpu1.op_class::FloatMult                     0      0.00%     75.60% # Class of executed instruction
system.cpu1.op_class::FloatDiv                      0      0.00%     75.60% # Class of executed instruction
system.cpu1.op_class::FloatSqrt                     0      0.00%     75.60% # Class of executed instruction
system.cpu1.op_class::SimdAdd                       0      0.00%     75.60% # Class of executed instruction
system.cpu1.op_class::SimdAddAcc                    0      0.00%     75.60% # Class of executed instruction
system.cpu1.op_class::SimdAlu                       0      0.00%     75.60% # Class of executed instruction
system.cpu1.op_class::SimdCmp                       0      0.00%     75.60% # Class of executed instruction
system.cpu1.op_class::SimdCvt                       0      0.00%     75.60% # Class of executed instruction
system.cpu1.op_class::SimdMisc                      0      0.00%     75.60% # Class of executed instruction
system.cpu1.op_class::SimdMult                      0      0.00%     75.60% # Class of executed instruction
system.cpu1.op_class::SimdMultAcc                   0      0.00%     75.60% # Class of executed instruction
system.cpu1.op_class::SimdShift                     0      0.00%     75.60% # Class of executed instruction
system.cpu1.op_class::SimdShiftAcc                  0      0.00%     75.60% # Class of executed instruction
system.cpu1.op_class::SimdSqrt                      0      0.00%     75.60% # Class of executed instruction
system.cpu1.op_class::SimdFloatAdd                  0      0.00%     75.60% # Class of executed instruction
system.cpu1.op_class::SimdFloatAlu                  0      0.00%     75.60% # Class of executed instruction
system.cpu1.op_class::SimdFloatCmp                  0      0.00%     75.60% # Class of executed instruction
system.cpu1.op_class::SimdFloatCvt                  0      0.00%     75.60% # Class of executed instruction
system.cpu1.op_class::SimdFloatDiv                  0      0.00%     75.60% # Class of executed instruction
system.cpu1.op_class::SimdFloatMisc                 0      0.00%     75.60% # Class of executed instruction
system.cpu1.op_class::SimdFloatMult                 0      0.00%     75.60% # Class of executed instruction
system.cpu1.op_class::SimdFloatMultAcc              0      0.00%     75.60% # Class of executed instruction
system.cpu1.op_class::SimdFloatSqrt                 0      0.00%     75.60% # Class of executed instruction
system.cpu1.op_class::MemRead                 3521742     24.26%     99.86% # Class of executed instruction
system.cpu1.op_class::MemWrite                  20337      0.14%    100.00% # Class of executed instruction
system.cpu1.op_class::IprAccess                     0      0.00%    100.00% # Class of executed instruction
system.cpu1.op_class::InstPrefetch                  0      0.00%    100.00% # Class of executed instruction
system.cpu1.op_class::total                  14517439                       # Class of executed instruction
system.ruby.clk_domain.clock                      500                       # Clock period in ticks
system.ruby.delayHist::bucket_size                  4                       # delay histogram for all message
system.ruby.delayHist::max_bucket                  39                       # delay histogram for all message
system.ruby.delayHist::samples                3021706                       # delay histogram for all message
system.ruby.delayHist::mean                  0.435016                       # delay histogram for all message
system.ruby.delayHist::stdev                 1.813931                       # delay histogram for all message
system.ruby.delayHist                    |     2857326     94.56%     94.56% |         199      0.01%     94.57% |      164178      5.43%    100.00% |           1      0.00%    100.00% |           0      0.00%    100.00% |           0      0.00%    100.00% |           1      0.00%    100.00% |           0      0.00%    100.00% |           1      0.00%    100.00% |           0      0.00%    100.00% # delay histogram for all message
system.ruby.delayHist::total                  3021706                       # delay histogram for all message
system.ruby.outstanding_req_hist::bucket_size            1                      
system.ruby.outstanding_req_hist::max_bucket            9                      
system.ruby.outstanding_req_hist::samples    301821559                      
system.ruby.outstanding_req_hist::mean       1.000122                      
system.ruby.outstanding_req_hist::gmean      1.000085                      
system.ruby.outstanding_req_hist::stdev      0.011060                      
system.ruby.outstanding_req_hist         |           0      0.00%      0.00% |   301784633     99.99%     99.99% |       36926      0.01%    100.00% |           0      0.00%    100.00% |           0      0.00%    100.00% |           0      0.00%    100.00% |           0      0.00%    100.00% |           0      0.00%    100.00% |           0      0.00%    100.00% |           0      0.00%    100.00%
system.ruby.outstanding_req_hist::total     301821559                      
system.ruby.latency_hist::bucket_size             256                      
system.ruby.latency_hist::max_bucket             2559                      
system.ruby.latency_hist::samples           301821559                      
system.ruby.latency_hist::mean               1.129234                      
system.ruby.latency_hist::gmean              1.006612                      
system.ruby.latency_hist::stdev              4.840195                      
system.ruby.latency_hist                 |   301806712    100.00%    100.00% |        9991      0.00%    100.00% |        4715      0.00%    100.00% |          75      0.00%    100.00% |          65      0.00%    100.00% |           1      0.00%    100.00% |           0      0.00%    100.00% |           0      0.00%    100.00% |           0      0.00%    100.00% |           0      0.00%    100.00%
system.ruby.latency_hist::total             301821559                      
system.ruby.hit_latency_hist::bucket_size          256                      
system.ruby.hit_latency_hist::max_bucket         2559                      
system.ruby.hit_latency_hist::samples       301821559                      
system.ruby.hit_latency_hist::mean           1.129234                      
system.ruby.hit_latency_hist::gmean          1.006612                      
system.ruby.hit_latency_hist::stdev          4.840195                      
system.ruby.hit_latency_hist             |   301806712    100.00%    100.00% |        9991      0.00%    100.00% |        4715      0.00%    100.00% |          75      0.00%    100.00% |          65      0.00%    100.00% |           1      0.00%    100.00% |           0      0.00%    100.00% |           0      0.00%    100.00% |           0      0.00%    100.00% |           0      0.00%    100.00%
system.ruby.hit_latency_hist::total         301821559                      
system.ruby.l0_cntrl0.Dcache.demand_hits     72630536                       # Number of cache demand hits
system.ruby.l0_cntrl0.Dcache.demand_misses       200137                       # Number of cache demand misses
system.ruby.l0_cntrl0.Dcache.demand_accesses     72830673                       # Number of cache demand accesses
system.ruby.l0_cntrl0.Icache.demand_hits    216096072                       # Number of cache demand hits
system.ruby.l0_cntrl0.Icache.demand_misses         3329                       # Number of cache demand misses
system.ruby.l0_cntrl0.Icache.demand_accesses    216099401                       # Number of cache demand accesses
system.ruby.l0_cntrl0.Zcache.demand_hits            0                       # Number of cache demand hits
system.ruby.l0_cntrl0.Zcache.demand_misses            0                       # Number of cache demand misses
system.ruby.l0_cntrl0.Zcache.demand_accesses            0                       # Number of cache demand accesses
system.ruby.l0_cntrl1.Dcache.demand_hits      3183596                       # Number of cache demand hits
system.ruby.l0_cntrl1.Dcache.demand_misses       395347                       # Number of cache demand misses
system.ruby.l0_cntrl1.Dcache.demand_accesses      3578943                       # Number of cache demand accesses
system.ruby.l0_cntrl1.Icache.demand_hits      9311289                       # Number of cache demand hits
system.ruby.l0_cntrl1.Icache.demand_misses         1253                       # Number of cache demand misses
system.ruby.l0_cntrl1.Icache.demand_accesses      9312542                       # Number of cache demand accesses
system.ruby.l0_cntrl1.Zcache.demand_hits            0                       # Number of cache demand hits
system.ruby.l0_cntrl1.Zcache.demand_misses            0                       # Number of cache demand misses
system.ruby.l0_cntrl1.Zcache.demand_accesses            0                       # Number of cache demand accesses
system.ruby.l1_cntrl0.cache.demand_hits         45896                       # Number of cache demand hits
system.ruby.l1_cntrl0.cache.demand_misses       157570                       # Number of cache demand misses
system.ruby.l1_cntrl0.cache.demand_accesses       203466                       # Number of cache demand accesses
system.ruby.l1_cntrl1.cache.demand_hits        154423                       # Number of cache demand hits
system.ruby.l1_cntrl1.cache.demand_misses       242177                       # Number of cache demand misses
system.ruby.l1_cntrl1.cache.demand_accesses       396600                       # Number of cache demand accesses
system.ruby.l2_cntrl0.L2cache.demand_hits       159326                       # Number of cache demand hits
system.ruby.l2_cntrl0.L2cache.demand_misses       240421                       # Number of cache demand misses
system.ruby.l2_cntrl0.L2cache.demand_accesses       399747                       # Number of cache demand accesses
system.ruby.l2_cntrl0.fully_busy_cycles             1                       # cycles for which number of transistions == max transitions
system.ruby.memctrl_clk_domain.clock             1500                       # Clock period in ticks
system.ruby.network.routers0.percent_links_utilized            0                      
system.ruby.network.routers1.percent_links_utilized            0                      
system.ruby.network.routers2.percent_links_utilized     0.137122                      
system.ruby.network.routers2.msg_count.Control::0       157570                      
system.ruby.network.routers2.msg_count.Request_Control::2         1029                      
system.ruby.network.routers2.msg_count.Response_Data::1       157581                      
system.ruby.network.routers2.msg_count.Response_Control::1       155891                      
system.ruby.network.routers2.msg_count.Response_Control::2       157569                      
system.ruby.network.routers2.msg_count.Writeback_Data::0       155229                      
system.ruby.network.routers2.msg_count.Writeback_Data::1          957                      
system.ruby.network.routers2.msg_count.Writeback_Control::0          580                      
system.ruby.network.routers2.msg_bytes.Control::0      1260560                      
system.ruby.network.routers2.msg_bytes.Request_Control::2         8232                      
system.ruby.network.routers2.msg_bytes.Response_Data::1     11345832                      
system.ruby.network.routers2.msg_bytes.Response_Control::1      1247128                      
system.ruby.network.routers2.msg_bytes.Response_Control::2      1260552                      
system.ruby.network.routers2.msg_bytes.Writeback_Data::0     11176488                      
system.ruby.network.routers2.msg_bytes.Writeback_Data::1        68904                      
system.ruby.network.routers2.msg_bytes.Writeback_Control::0         4640                      
system.ruby.network.routers3.percent_links_utilized     0.133847                      
system.ruby.network.routers3.msg_count.Control::0       242177                      
system.ruby.network.routers3.msg_count.Request_Control::2           28                      
system.ruby.network.routers3.msg_count.Response_Data::1       242201                      
system.ruby.network.routers3.msg_count.Response_Control::1       241127                      
system.ruby.network.routers3.msg_count.Response_Control::2       242138                      
system.ruby.network.routers3.msg_count.Writeback_Data::0         8925                      
system.ruby.network.routers3.msg_count.Writeback_Control::0       232185                      
system.ruby.network.routers3.msg_bytes.Control::0      1937416                      
system.ruby.network.routers3.msg_bytes.Request_Control::2          224                      
system.ruby.network.routers3.msg_bytes.Response_Data::1     17438472                      
system.ruby.network.routers3.msg_bytes.Response_Control::1      1929016                      
system.ruby.network.routers3.msg_bytes.Response_Control::2      1937104                      
system.ruby.network.routers3.msg_bytes.Writeback_Data::0       642600                      
system.ruby.network.routers3.msg_bytes.Writeback_Control::0      1857480                      
system.ruby.network.routers4.percent_links_utilized     0.436732                      
system.ruby.network.routers4.msg_count.Control::0       640142                      
system.ruby.network.routers4.msg_count.Request_Control::2         1053                      
system.ruby.network.routers4.msg_count.Response_Data::1       794115                      
system.ruby.network.routers4.msg_count.Response_Control::1       592723                      
system.ruby.network.routers4.msg_count.Response_Control::2       399707                      
system.ruby.network.routers4.msg_count.Writeback_Data::0       164154                      
system.ruby.network.routers4.msg_count.Writeback_Data::1          957                      
system.ruby.network.routers4.msg_count.Writeback_Control::0       232765                      
system.ruby.network.routers4.msg_bytes.Control::0      5121136                      
system.ruby.network.routers4.msg_bytes.Request_Control::2         8424                      
system.ruby.network.routers4.msg_bytes.Response_Data::1     57176280                      
system.ruby.network.routers4.msg_bytes.Response_Control::1      4741784                      
system.ruby.network.routers4.msg_bytes.Response_Control::2      3197656                      
system.ruby.network.routers4.msg_bytes.Writeback_Data::0     11819088                      
system.ruby.network.routers4.msg_bytes.Writeback_Data::1        68904                      
system.ruby.network.routers4.msg_bytes.Writeback_Control::0      1862120                      
system.ruby.network.routers5.percent_links_utilized     0.165784                      
system.ruby.network.routers5.msg_count.Control::0       240395                      
system.ruby.network.routers5.msg_count.Response_Data::1       394384                      
system.ruby.network.routers5.msg_count.Response_Control::1       195729                      
system.ruby.network.routers5.msg_bytes.Control::0      1923160                      
system.ruby.network.routers5.msg_bytes.Response_Data::1     28395648                      
system.ruby.network.routers5.msg_bytes.Response_Control::1      1565832                      
system.ruby.network.routers6.percent_links_utilized     0.145581                      
system.ruby.network.routers6.msg_count.Control::0       640142                      
system.ruby.network.routers6.msg_count.Request_Control::2         1057                      
system.ruby.network.routers6.msg_count.Response_Data::1       794141                      
system.ruby.network.routers6.msg_count.Response_Control::1       592735                      
system.ruby.network.routers6.msg_count.Response_Control::2       399707                      
system.ruby.network.routers6.msg_count.Writeback_Data::0       164154                      
system.ruby.network.routers6.msg_count.Writeback_Data::1          957                      
system.ruby.network.routers6.msg_count.Writeback_Control::0       232765                      
system.ruby.network.routers6.msg_bytes.Control::0      5121136                      
system.ruby.network.routers6.msg_bytes.Request_Control::2         8456                      
system.ruby.network.routers6.msg_bytes.Response_Data::1     57178152                      
system.ruby.network.routers6.msg_bytes.Response_Control::1      4741880                      
system.ruby.network.routers6.msg_bytes.Response_Control::2      3197656                      
system.ruby.network.routers6.msg_bytes.Writeback_Data::0     11819088                      
system.ruby.network.routers6.msg_bytes.Writeback_Data::1        68904                      
system.ruby.network.routers6.msg_bytes.Writeback_Control::0      1862120                      
system.ruby.network.msg_count.Control         1920426                      
system.ruby.network.msg_count.Request_Control         3167                      
system.ruby.network.msg_count.Response_Data      2382422                      
system.ruby.network.msg_count.Response_Control      2977326                      
system.ruby.network.msg_count.Writeback_Data       495333                      
system.ruby.network.msg_count.Writeback_Control       698295                      
system.ruby.network.msg_byte.Control         15363408                      
system.ruby.network.msg_byte.Request_Control        25336                      
system.ruby.network.msg_byte.Response_Data    171534384                      
system.ruby.network.msg_byte.Response_Control     23818608                      
system.ruby.network.msg_byte.Writeback_Data     35663976                      
system.ruby.network.msg_byte.Writeback_Control      5586360                      
system.ruby.network.routers0.throttle0.link_utilization            0                      
system.ruby.network.routers0.throttle1.link_utilization            0                      
system.ruby.network.routers1.throttle0.link_utilization            0                      
system.ruby.network.routers1.throttle1.link_utilization            0                      
system.ruby.network.routers2.throttle0.link_utilization     0.131018                      
system.ruby.network.routers2.throttle0.msg_count.Request_Control::2         1029                      
system.ruby.network.routers2.throttle0.msg_count.Response_Data::1       157559                      
system.ruby.network.routers2.throttle0.msg_count.Response_Control::1       155831                      
system.ruby.network.routers2.throttle0.msg_bytes.Request_Control::2         8232                      
system.ruby.network.routers2.throttle0.msg_bytes.Response_Data::1     11344248                      
system.ruby.network.routers2.throttle0.msg_bytes.Response_Control::1      1246648                      
system.ruby.network.routers2.throttle1.link_utilization     0.143227                      
system.ruby.network.routers2.throttle1.msg_count.Control::0       157570                      
system.ruby.network.routers2.throttle1.msg_count.Response_Data::1           22                      
system.ruby.network.routers2.throttle1.msg_count.Response_Control::1           60                      
system.ruby.network.routers2.throttle1.msg_count.Response_Control::2       157569                      
system.ruby.network.routers2.throttle1.msg_count.Writeback_Data::0       155229                      
system.ruby.network.routers2.throttle1.msg_count.Writeback_Data::1          957                      
system.ruby.network.routers2.throttle1.msg_count.Writeback_Control::0          580                      
system.ruby.network.routers2.throttle1.msg_bytes.Control::0      1260560                      
system.ruby.network.routers2.throttle1.msg_bytes.Response_Data::1         1584                      
system.ruby.network.routers2.throttle1.msg_bytes.Response_Control::1          480                      
system.ruby.network.routers2.throttle1.msg_bytes.Response_Control::2      1260552                      
system.ruby.network.routers2.throttle1.msg_bytes.Writeback_Data::0     11176488                      
system.ruby.network.routers2.throttle1.msg_bytes.Writeback_Data::1        68904                      
system.ruby.network.routers2.throttle1.msg_bytes.Writeback_Control::0         4640                      
system.ruby.network.routers3.throttle0.link_utilization     0.201384                      
system.ruby.network.routers3.throttle0.msg_count.Request_Control::2           28                      
system.ruby.network.routers3.throttle0.msg_count.Response_Data::1       242176                      
system.ruby.network.routers3.throttle0.msg_count.Response_Control::1       241112                      
system.ruby.network.routers3.throttle0.msg_bytes.Request_Control::2          224                      
system.ruby.network.routers3.throttle0.msg_bytes.Response_Data::1     17436672                      
system.ruby.network.routers3.throttle0.msg_bytes.Response_Control::1      1928896                      
system.ruby.network.routers3.throttle1.link_utilization     0.066309                      
system.ruby.network.routers3.throttle1.msg_count.Control::0       242177                      
system.ruby.network.routers3.throttle1.msg_count.Response_Data::1           25                      
system.ruby.network.routers3.throttle1.msg_count.Response_Control::1           15                      
system.ruby.network.routers3.throttle1.msg_count.Response_Control::2       242138                      
system.ruby.network.routers3.throttle1.msg_count.Writeback_Data::0         8925                      
system.ruby.network.routers3.throttle1.msg_count.Writeback_Control::0       232185                      
system.ruby.network.routers3.throttle1.msg_bytes.Control::0      1937416                      
system.ruby.network.routers3.throttle1.msg_bytes.Response_Data::1         1800                      
system.ruby.network.routers3.throttle1.msg_bytes.Response_Control::1          120                      
system.ruby.network.routers3.throttle1.msg_bytes.Response_Control::2      1937104                      
system.ruby.network.routers3.throttle1.msg_bytes.Writeback_Data::0       642600                      
system.ruby.network.routers3.throttle1.msg_bytes.Writeback_Control::0      1857480                      
system.ruby.network.routers4.throttle0.link_utilization     0.404053                      
system.ruby.network.routers4.throttle0.msg_count.Control::0       399747                      
system.ruby.network.routers4.throttle0.msg_count.Response_Data::1       240417                      
system.ruby.network.routers4.throttle0.msg_count.Response_Control::1       174922                      
system.ruby.network.routers4.throttle0.msg_count.Response_Control::2       399707                      
system.ruby.network.routers4.throttle0.msg_count.Writeback_Data::0       164154                      
system.ruby.network.routers4.throttle0.msg_count.Writeback_Data::1          957                      
system.ruby.network.routers4.throttle0.msg_count.Writeback_Control::0       232765                      
system.ruby.network.routers4.throttle0.msg_bytes.Control::0      3197976                      
system.ruby.network.routers4.throttle0.msg_bytes.Response_Data::1     17310024                      
system.ruby.network.routers4.throttle0.msg_bytes.Response_Control::1      1399376                      
system.ruby.network.routers4.throttle0.msg_bytes.Response_Control::2      3197656                      
system.ruby.network.routers4.throttle0.msg_bytes.Writeback_Data::0     11819088                      
system.ruby.network.routers4.throttle0.msg_bytes.Writeback_Data::1        68904                      
system.ruby.network.routers4.throttle0.msg_bytes.Writeback_Control::0      1862120                      
system.ruby.network.routers4.throttle1.link_utilization     0.469412                      
system.ruby.network.routers4.throttle1.msg_count.Control::0       240395                      
system.ruby.network.routers4.throttle1.msg_count.Request_Control::2         1053                      
system.ruby.network.routers4.throttle1.msg_count.Response_Data::1       553698                      
system.ruby.network.routers4.throttle1.msg_count.Response_Control::1       417801                      
system.ruby.network.routers4.throttle1.msg_bytes.Control::0      1923160                      
system.ruby.network.routers4.throttle1.msg_bytes.Request_Control::2         8424                      
system.ruby.network.routers4.throttle1.msg_bytes.Response_Data::1     39866256                      
system.ruby.network.routers4.throttle1.msg_bytes.Response_Control::1      3342408                      
system.ruby.network.routers5.throttle0.link_utilization     0.137030                      
system.ruby.network.routers5.throttle0.msg_count.Control::0       240395                      
system.ruby.network.routers5.throttle0.msg_count.Response_Data::1       153989                      
system.ruby.network.routers5.throttle0.msg_count.Response_Control::1        20870                      
system.ruby.network.routers5.throttle0.msg_bytes.Control::0      1923160                      
system.ruby.network.routers5.throttle0.msg_bytes.Response_Data::1     11087208                      
system.ruby.network.routers5.throttle0.msg_bytes.Response_Control::1       166960                      
system.ruby.network.routers5.throttle1.link_utilization     0.194537                      
system.ruby.network.routers5.throttle1.msg_count.Response_Data::1       240395                      
system.ruby.network.routers5.throttle1.msg_count.Response_Control::1       174859                      
system.ruby.network.routers5.throttle1.msg_bytes.Response_Data::1     17308440                      
system.ruby.network.routers5.throttle1.msg_bytes.Response_Control::1      1398872                      
system.ruby.network.routers6.throttle0.link_utilization            0                      
system.ruby.network.routers6.throttle1.link_utilization            0                      
system.ruby.network.routers6.throttle2.link_utilization     0.131018                      
system.ruby.network.routers6.throttle2.msg_count.Request_Control::2         1029                      
system.ruby.network.routers6.throttle2.msg_count.Response_Data::1       157559                      
system.ruby.network.routers6.throttle2.msg_count.Response_Control::1       155831                      
system.ruby.network.routers6.throttle2.msg_bytes.Request_Control::2         8232                      
system.ruby.network.routers6.throttle2.msg_bytes.Response_Data::1     11344248                      
system.ruby.network.routers6.throttle2.msg_bytes.Response_Control::1      1246648                      
system.ruby.network.routers6.throttle3.link_utilization     0.201384                      
system.ruby.network.routers6.throttle3.msg_count.Request_Control::2           28                      
system.ruby.network.routers6.throttle3.msg_count.Response_Data::1       242176                      
system.ruby.network.routers6.throttle3.msg_count.Response_Control::1       241112                      
system.ruby.network.routers6.throttle3.msg_bytes.Request_Control::2          224                      
system.ruby.network.routers6.throttle3.msg_bytes.Response_Data::1     17436672                      
system.ruby.network.routers6.throttle3.msg_bytes.Response_Control::1      1928896                      
system.ruby.network.routers6.throttle4.link_utilization     0.404053                      
system.ruby.network.routers6.throttle4.msg_count.Control::0       399747                      
system.ruby.network.routers6.throttle4.msg_count.Response_Data::1       240417                      
system.ruby.network.routers6.throttle4.msg_count.Response_Control::1       174922                      
system.ruby.network.routers6.throttle4.msg_count.Response_Control::2       399707                      
system.ruby.network.routers6.throttle4.msg_count.Writeback_Data::0       164154                      
system.ruby.network.routers6.throttle4.msg_count.Writeback_Data::1          957                      
system.ruby.network.routers6.throttle4.msg_count.Writeback_Control::0       232765                      
system.ruby.network.routers6.throttle4.msg_bytes.Control::0      3197976                      
system.ruby.network.routers6.throttle4.msg_bytes.Response_Data::1     17310024                      
system.ruby.network.routers6.throttle4.msg_bytes.Response_Control::1      1399376                      
system.ruby.network.routers6.throttle4.msg_bytes.Response_Control::2      3197656                      
system.ruby.network.routers6.throttle4.msg_bytes.Writeback_Data::0     11819088                      
system.ruby.network.routers6.throttle4.msg_bytes.Writeback_Data::1        68904                      
system.ruby.network.routers6.throttle4.msg_bytes.Writeback_Control::0      1862120                      
system.ruby.network.routers6.throttle5.link_utilization     0.137030                      
system.ruby.network.routers6.throttle5.msg_count.Control::0       240395                      
system.ruby.network.routers6.throttle5.msg_count.Response_Data::1       153989                      
system.ruby.network.routers6.throttle5.msg_count.Response_Control::1        20870                      
system.ruby.network.routers6.throttle5.msg_bytes.Control::0      1923160                      
system.ruby.network.routers6.throttle5.msg_bytes.Response_Data::1     11087208                      
system.ruby.network.routers6.throttle5.msg_bytes.Response_Control::1       166960                      
system.ruby.delayVCHist.vnet_0::bucket_size            4                       # delay histogram for vnet_0
system.ruby.delayVCHist.vnet_0::max_bucket           39                       # delay histogram for vnet_0
system.ruby.delayVCHist.vnet_0::samples       1196373                       # delay histogram for vnet_0
system.ruby.delayVCHist.vnet_0::mean         1.097738                       # delay histogram for vnet_0
system.ruby.delayVCHist.vnet_0::stdev        2.752816                       # delay histogram for vnet_0
system.ruby.delayVCHist.vnet_0           |     1032216     86.28%     86.28% |           0      0.00%     86.28% |      164154     13.72%    100.00% |           1      0.00%    100.00% |           0      0.00%    100.00% |           0      0.00%    100.00% |           1      0.00%    100.00% |           0      0.00%    100.00% |           1      0.00%    100.00% |           0      0.00%    100.00% # delay histogram for vnet_0
system.ruby.delayVCHist.vnet_0::total         1196373                       # delay histogram for vnet_0
system.ruby.delayVCHist.vnet_1::bucket_size            1                       # delay histogram for vnet_1
system.ruby.delayVCHist.vnet_1::max_bucket            9                       # delay histogram for vnet_1
system.ruby.delayVCHist.vnet_1::samples       1813040                       # delay histogram for vnet_1
system.ruby.delayVCHist.vnet_1::mean         0.000106                       # delay histogram for vnet_1
system.ruby.delayVCHist.vnet_1::stdev        0.029106                       # delay histogram for vnet_1
system.ruby.delayVCHist.vnet_1           |     1813016    100.00%    100.00% |           0      0.00%    100.00% |           0      0.00%    100.00% |           0      0.00%    100.00% |           0      0.00%    100.00% |           0      0.00%    100.00% |           0      0.00%    100.00% |           0      0.00%    100.00% |          24      0.00%    100.00% |           0      0.00%    100.00% # delay histogram for vnet_1
system.ruby.delayVCHist.vnet_1::total         1813040                       # delay histogram for vnet_1
system.ruby.delayVCHist.vnet_2::bucket_size            1                       # delay histogram for vnet_2
system.ruby.delayVCHist.vnet_2::max_bucket            9                       # delay histogram for vnet_2
system.ruby.delayVCHist.vnet_2::samples         12293                       # delay histogram for vnet_2
system.ruby.delayVCHist.vnet_2::mean         0.080940                       # delay histogram for vnet_2
system.ruby.delayVCHist.vnet_2::stdev        0.631017                       # delay histogram for vnet_2
system.ruby.delayVCHist.vnet_2           |       12094     98.38%     98.38% |           0      0.00%     98.38% |           0      0.00%     98.38% |           0      0.00%     98.38% |           0      0.00%     98.38% |         199      1.62%    100.00% |           0      0.00%    100.00% |           0      0.00%    100.00% |           0      0.00%    100.00% |           0      0.00%    100.00% # delay histogram for vnet_2
system.ruby.delayVCHist.vnet_2::total           12293                       # delay histogram for vnet_2
system.ruby.LD.latency_hist::bucket_size          128                      
system.ruby.LD.latency_hist::max_bucket          1279                      
system.ruby.LD.latency_hist::samples         43650085                      
system.ruby.LD.latency_hist::mean            1.363480                      
system.ruby.LD.latency_hist::gmean           1.027338                      
system.ruby.LD.latency_hist::stdev           7.439931                      
system.ruby.LD.latency_hist              |    43641064     99.98%     99.98% |        3569      0.01%     99.99% |         559      0.00%     99.99% |        3382      0.01%    100.00% |        1106      0.00%    100.00% |         371      0.00%    100.00% |           9      0.00%    100.00% |           8      0.00%    100.00% |          13      0.00%    100.00% |           4      0.00%    100.00%
system.ruby.LD.latency_hist::total           43650085                      
system.ruby.LD.hit_latency_hist::bucket_size          128                      
system.ruby.LD.hit_latency_hist::max_bucket         1279                      
system.ruby.LD.hit_latency_hist::samples     43650085                      
system.ruby.LD.hit_latency_hist::mean        1.363480                      
system.ruby.LD.hit_latency_hist::gmean       1.027338                      
system.ruby.LD.hit_latency_hist::stdev       7.439931                      
system.ruby.LD.hit_latency_hist          |    43641064     99.98%     99.98% |        3569      0.01%     99.99% |         559      0.00%     99.99% |        3382      0.01%    100.00% |        1106      0.00%    100.00% |         371      0.00%    100.00% |           9      0.00%    100.00% |           8      0.00%    100.00% |          13      0.00%    100.00% |           4      0.00%    100.00%
system.ruby.LD.hit_latency_hist::total       43650085                      
system.ruby.ST.latency_hist::bucket_size          256                      
system.ruby.ST.latency_hist::max_bucket          2559                      
system.ruby.ST.latency_hist::samples         22588854                      
system.ruby.ST.latency_hist::mean            2.013052                      
system.ruby.ST.latency_hist::gmean           1.035825                      
system.ruby.ST.latency_hist::stdev          14.269094                      
system.ruby.ST.latency_hist              |    22579481     99.96%     99.96% |        6046      0.03%     99.99% |        3220      0.01%    100.00% |          58      0.00%    100.00% |          48      0.00%    100.00% |           1      0.00%    100.00% |           0      0.00%    100.00% |           0      0.00%    100.00% |           0      0.00%    100.00% |           0      0.00%    100.00%
system.ruby.ST.latency_hist::total           22588854                      
system.ruby.ST.hit_latency_hist::bucket_size          256                      
system.ruby.ST.hit_latency_hist::max_bucket         2559                      
system.ruby.ST.hit_latency_hist::samples     22588854                      
system.ruby.ST.hit_latency_hist::mean        2.013052                      
system.ruby.ST.hit_latency_hist::gmean       1.035825                      
system.ruby.ST.hit_latency_hist::stdev      14.269094                      
system.ruby.ST.hit_latency_hist          |    22579481     99.96%     99.96% |        6046      0.03%     99.99% |        3220      0.01%    100.00% |          58      0.00%    100.00% |          48      0.00%    100.00% |           1      0.00%    100.00% |           0      0.00%    100.00% |           0      0.00%    100.00% |           0      0.00%    100.00% |           0      0.00%    100.00%
system.ruby.ST.hit_latency_hist::total       22588854                      
system.ruby.IFETCH.latency_hist::bucket_size          128                      
system.ruby.IFETCH.latency_hist::max_bucket         1279                      
system.ruby.IFETCH.latency_hist::samples    225411943                      
system.ruby.IFETCH.latency_hist::mean        1.001114                      
system.ruby.IFETCH.latency_hist::gmean       1.000072                      
system.ruby.IFETCH.latency_hist::stdev       0.373172                      
system.ruby.IFETCH.latency_hist          |   225411609    100.00%    100.00% |         312      0.00%    100.00% |           1      0.00%    100.00% |           3      0.00%    100.00% |           8      0.00%    100.00% |          10      0.00%    100.00% |           0      0.00%    100.00% |           0      0.00%    100.00% |           0      0.00%    100.00% |           0      0.00%    100.00%
system.ruby.IFETCH.latency_hist::total      225411943                      
[...]
system.ruby.L0Cache_Controller.S.Ifetch::total          181                      
system.ruby.L0Cache_Controller.S.Store   |          11     91.67%     91.67% |           1      8.33%    100.00%
system.ruby.L0Cache_Controller.S.Store::total           12                      
system.ruby.L0Cache_Controller.S.Inv     |           2     11.76%     11.76% |          15     88.24%    100.00%
system.ruby.L0Cache_Controller.S.Inv::total           17                      
system.ruby.L0Cache_Controller.S.L0_Replacement |           7      4.17%      4.17% |         161     95.83%    100.00%
system.ruby.L0Cache_Controller.S.L0_Replacement::total          168                      
system.ruby.L0Cache_Controller.E.Load    |     5394817     63.08%     63.08% |     3156883     36.92%    100.00%
system.ruby.L0Cache_Controller.E.Load::total      8551700                      
system.ruby.L0Cache_Controller.E.Ifetch  |   216096047     95.87%     95.87% |     9311133      4.13%    100.00%
system.ruby.L0Cache_Controller.E.Ifetch::total    225407180                      
system.ruby.L0Cache_Controller.E.Store   |       20945     92.45%     92.45% |        1711      7.55%    100.00%
system.ruby.L0Cache_Controller.E.Store::total        22656                      
system.ruby.L0Cache_Controller.E.Inv     |        2267     22.25%     22.25% |        7924     77.75%    100.00%
system.ruby.L0Cache_Controller.E.Inv::total        10191                      
system.ruby.L0Cache_Controller.E.L0_Replacement |        4786      1.23%      1.23% |      384389     98.77%    100.00%
system.ruby.L0Cache_Controller.E.L0_Replacement::total       389175                      
system.ruby.L0Cache_Controller.M.Load    |    32646974     99.97%     99.97% |        8474      0.03%    100.00%
system.ruby.L0Cache_Controller.M.Load::total     32655448                      
system.ruby.L0Cache_Controller.M.Store   |    32543236     99.95%     99.95% |       16361      0.05%    100.00%
system.ruby.L0Cache_Controller.M.Store::total     32559597                      
system.ruby.L0Cache_Controller.M.Inv     |         901     90.28%     90.28% |          97      9.72%    100.00%
system.ruby.L0Cache_Controller.M.Inv::total          998                      
system.ruby.L0Cache_Controller.M.L0_Replacement |      194986     98.05%     98.05% |        3877      1.95%    100.00%
system.ruby.L0Cache_Controller.M.L0_Replacement::total       198863                      
system.ruby.L0Cache_Controller.IS.Data   |          21     10.45%     10.45% |         180     89.55%    100.00%
system.ruby.L0Cache_Controller.IS.Data::total          201                      
system.ruby.L0Cache_Controller.IS.Data_Exclusive |       28439      6.73%      6.73% |      394148     93.27%    100.00%
system.ruby.L0Cache_Controller.IS.Data_Exclusive::total       422587                      
system.ruby.L0Cache_Controller.IM.Data_Exclusive |      174995     98.72%     98.72% |        2271      1.28%    100.00%
system.ruby.L0Cache_Controller.IM.Data_Exclusive::total       177266                      
system.ruby.L0Cache_Controller.SM.Data_Exclusive |          11     91.67%     91.67% |           1      8.33%    100.00%
system.ruby.L0Cache_Controller.SM.Data_Exclusive::total           12                      
system.ruby.L1Cache_Controller.Load      |       28460      6.73%      6.73% |      394328     93.27%    100.00%
system.ruby.L1Cache_Controller.Load::total       422788                      
system.ruby.L1Cache_Controller.Store     |      175006     98.72%     98.72% |        2272      1.28%    100.00%
system.ruby.L1Cache_Controller.Store::total       177278                      
system.ruby.L1Cache_Controller.WriteBack |      199772     33.97%     33.97% |      388266     66.03%    100.00%
system.ruby.L1Cache_Controller.WriteBack::total       588038                      
system.ruby.L1Cache_Controller.L0_DataAck |         901     90.28%     90.28% |          97      9.72%    100.00%
system.ruby.L1Cache_Controller.L0_DataAck::total          998                      
system.ruby.L1Cache_Controller.Inv       |        1017     98.55%     98.55% |          15      1.45%    100.00%
system.ruby.L1Cache_Controller.Inv::total         1032                      
system.ruby.L1Cache_Controller.L0_Invalidate_Own |        5966     27.03%     27.03% |       16108     72.97%    100.00%
system.ruby.L1Cache_Controller.L0_Invalidate_Own::total        22074                      
system.ruby.L1Cache_Controller.L0_Invalidate_Else |         376     94.47%     94.47% |          22      5.53%    100.00%
system.ruby.L1Cache_Controller.L0_Invalidate_Else::total          398                      
system.ruby.L1Cache_Controller.L1_Replacement |      155810     39.25%     39.25% |      241152     60.75%    100.00%
system.ruby.L1Cache_Controller.L1_Replacement::total       396962                      
system.ruby.L1Cache_Controller.Fwd_GETX  |           2     66.67%     66.67% |           1     33.33%    100.00%
system.ruby.L1Cache_Controller.Fwd_GETX::total            3                      
system.ruby.L1Cache_Controller.Fwd_GETS  |          10     45.45%     45.45% |          12     54.55%    100.00%
system.ruby.L1Cache_Controller.Fwd_GETS::total           22                      
system.ruby.L1Cache_Controller.Data_Exclusive |        4070      1.66%      1.66% |      241343     98.34%    100.00%
system.ruby.L1Cache_Controller.Data_Exclusive::total       245413                      
system.ruby.L1Cache_Controller.DataS_fromL1 |          12     54.55%     54.55% |          10     45.45%    100.00%
system.ruby.L1Cache_Controller.DataS_fromL1::total           22                      
system.ruby.L1Cache_Controller.Data_all_Acks |      153477     99.47%     99.47% |         823      0.53%    100.00%
system.ruby.L1Cache_Controller.Data_all_Acks::total       154300                      
system.ruby.L1Cache_Controller.L0_Ack    |        2270     22.17%     22.17% |        7968     77.83%    100.00%
system.ruby.L1Cache_Controller.L0_Ack::total        10238                      
system.ruby.L1Cache_Controller.Ack       |          11     91.67%     91.67% |           1      8.33%    100.00%
system.ruby.L1Cache_Controller.Ack::total           12                      
system.ruby.L1Cache_Controller.Ack_all   |          11     91.67%     91.67% |           1      8.33%    100.00%
system.ruby.L1Cache_Controller.Ack_all::total           12                      
system.ruby.L1Cache_Controller.WB_Ack    |      155809     39.25%     39.25% |      241110     60.75%    100.00%
system.ruby.L1Cache_Controller.WB_Ack::total       396919                      
system.ruby.L1Cache_Controller.NP.Load   |        4082      1.66%      1.66% |      241392     98.34%    100.00%
system.ruby.L1Cache_Controller.NP.Load::total       245474                      
system.ruby.L1Cache_Controller.NP.Store  |      153476     99.49%     99.49% |         784      0.51%    100.00%
system.ruby.L1Cache_Controller.NP.Store::total       154260                      
system.ruby.L1Cache_Controller.NP.Inv    |           0      0.00%      0.00% |           4    100.00%    100.00%
system.ruby.L1Cache_Controller.NP.Inv::total            4                      
system.ruby.L1Cache_Controller.I.Load    |           1    100.00%    100.00% |           0      0.00%    100.00%
system.ruby.L1Cache_Controller.I.Load::total            1                      
system.ruby.L1Cache_Controller.S.Load    |           2      1.50%      1.50% |         131     98.50%    100.00%
system.ruby.L1Cache_Controller.S.Load::total          133                      
system.ruby.L1Cache_Controller.S.Store   |          11     91.67%     91.67% |           1      8.33%    100.00%
system.ruby.L1Cache_Controller.S.Store::total           12                      
system.ruby.L1Cache_Controller.S.L0_Invalidate_Own |           1      2.33%      2.33% |          42     97.67%    100.00%
system.ruby.L1Cache_Controller.S.L0_Invalidate_Own::total           43                      
system.ruby.L1Cache_Controller.S.L0_Invalidate_Else |           2     50.00%     50.00% |           2     50.00%    100.00%
system.ruby.L1Cache_Controller.S.L0_Invalidate_Else::total            4                      
system.ruby.L1Cache_Controller.SS.Load   |           6    100.00%    100.00% |           0      0.00%    100.00%
system.ruby.L1Cache_Controller.SS.Load::total            6                      
system.ruby.L1Cache_Controller.SS.Inv    |           5     31.25%     31.25% |          11     68.75%    100.00%
system.ruby.L1Cache_Controller.SS.Inv::total           16                      
system.ruby.L1Cache_Controller.SS.L1_Replacement |           1      2.33%      2.33% |          42     97.67%    100.00%
system.ruby.L1Cache_Controller.SS.L1_Replacement::total           43                      
system.ruby.L1Cache_Controller.E.WriteBack |        1148      0.48%      0.48% |      239774     99.52%    100.00%
system.ruby.L1Cache_Controller.E.WriteBack::total       240922                      
system.ruby.L1Cache_Controller.E.L0_Invalidate_Own |        2483     63.29%     63.29% |        1440     36.71%    100.00%
system.ruby.L1Cache_Controller.E.L0_Invalidate_Own::total         3923                      
system.ruby.L1Cache_Controller.E.L0_Invalidate_Else |          63     92.65%     92.65% |           5      7.35%    100.00%
system.ruby.L1Cache_Controller.E.L0_Invalidate_Else::total           68                      
system.ruby.L1Cache_Controller.EE.Inv    |          55    100.00%    100.00% |           0      0.00%    100.00%
system.ruby.L1Cache_Controller.EE.Inv::total           55                      
system.ruby.L1Cache_Controller.EE.L1_Replacement |        2163     60.66%     60.66% |        1403     39.34%    100.00%
system.ruby.L1Cache_Controller.EE.L1_Replacement::total         3566                      
system.ruby.L1Cache_Controller.EE.Fwd_GETX |           1    100.00%    100.00% |           0      0.00%    100.00%
system.ruby.L1Cache_Controller.EE.Fwd_GETX::total            1                      
system.ruby.L1Cache_Controller.EE.Fwd_GETS |           4     44.44%     44.44% |           5     55.56%    100.00%
system.ruby.L1Cache_Controller.EE.Fwd_GETS::total            9                      
system.ruby.L1Cache_Controller.M.WriteBack |      198624     57.22%     57.22% |      148492     42.78%    100.00%
system.ruby.L1Cache_Controller.M.WriteBack::total       347116                      
system.ruby.L1Cache_Controller.M.L0_Invalidate_Own |         499      7.06%      7.06% |        6572     92.94%    100.00%
system.ruby.L1Cache_Controller.M.L0_Invalidate_Own::total         7071                      
system.ruby.L1Cache_Controller.M.L0_Invalidate_Else |         123     96.85%     96.85% |           4      3.15%    100.00%
system.ruby.L1Cache_Controller.M.L0_Invalidate_Else::total          127                      
system.ruby.L1Cache_Controller.MM.Load   |       24369     13.75%     13.75% |      152805     86.25%    100.00%
system.ruby.L1Cache_Controller.MM.Load::total       177174                      
system.ruby.L1Cache_Controller.MM.Store  |       21519     93.54%     93.54% |        1487      6.46%    100.00%
system.ruby.L1Cache_Controller.MM.Store::total        23006                      
system.ruby.L1Cache_Controller.MM.Inv    |         957    100.00%    100.00% |           0      0.00%    100.00%
system.ruby.L1Cache_Controller.MM.Inv::total          957                      
system.ruby.L1Cache_Controller.MM.L1_Replacement |      153646     39.06%     39.06% |      239707     60.94%    100.00%
system.ruby.L1Cache_Controller.MM.L1_Replacement::total       393353                      
system.ruby.L1Cache_Controller.MM.Fwd_GETX |           1     50.00%     50.00% |           1     50.00%    100.00%
system.ruby.L1Cache_Controller.MM.Fwd_GETX::total            2                      
system.ruby.L1Cache_Controller.MM.Fwd_GETS |           6     46.15%     46.15% |           7     53.85%    100.00%
system.ruby.L1Cache_Controller.MM.Fwd_GETS::total           13                      
system.ruby.L1Cache_Controller.IS.Data_Exclusive |        4070      1.66%      1.66% |      241343     98.34%    100.00%
system.ruby.L1Cache_Controller.IS.Data_Exclusive::total       245413                      
system.ruby.L1Cache_Controller.IS.DataS_fromL1 |          12     54.55%     54.55% |          10     45.45%    100.00%
system.ruby.L1Cache_Controller.IS.DataS_fromL1::total           22                      
system.ruby.L1Cache_Controller.IS.Data_all_Acks |           1      2.50%      2.50% |          39     97.50%    100.00%
system.ruby.L1Cache_Controller.IS.Data_all_Acks::total           40                      
system.ruby.L1Cache_Controller.IM.Data_all_Acks |      153476     99.49%     99.49% |         784      0.51%    100.00%
system.ruby.L1Cache_Controller.IM.Data_all_Acks::total       154260                      
system.ruby.L1Cache_Controller.SM.Ack    |          11     91.67%     91.67% |           1      8.33%    100.00%
system.ruby.L1Cache_Controller.SM.Ack::total           12                      
system.ruby.L1Cache_Controller.SM.Ack_all |          11     91.67%     91.67% |           1      8.33%    100.00%
system.ruby.L1Cache_Controller.SM.Ack_all::total           12                      
system.ruby.L1Cache_Controller.M_I.WB_Ack |      155809     39.25%     39.25% |      241110     60.75%    100.00%
system.ruby.L1Cache_Controller.M_I.WB_Ack::total       396919                      
system.ruby.L1Cache_Controller.S_IL0.L0_Invalidate_Own |           1      2.33%      2.33% |          42     97.67%    100.00%
system.ruby.L1Cache_Controller.S_IL0.L0_Invalidate_Own::total           43                      
system.ruby.L1Cache_Controller.S_IL0.L0_Invalidate_Else |           2     50.00%     50.00% |           2     50.00%    100.00%
system.ruby.L1Cache_Controller.S_IL0.L0_Invalidate_Else::total            4                      
system.ruby.L1Cache_Controller.S_IL0.L0_Ack |           3      6.38%      6.38% |          44     93.62%    100.00%
system.ruby.L1Cache_Controller.S_IL0.L0_Ack::total           47                      
system.ruby.L1Cache_Controller.E_IL0.L0_DataAck |         323     89.72%     89.72% |          37     10.28%    100.00%
system.ruby.L1Cache_Controller.E_IL0.L0_DataAck::total          360                      
system.ruby.L1Cache_Controller.E_IL0.L0_Invalidate_Own |        2483     63.29%     63.29% |        1440     36.71%    100.00%
system.ruby.L1Cache_Controller.E_IL0.L0_Invalidate_Own::total         3923                      
system.ruby.L1Cache_Controller.E_IL0.L0_Invalidate_Else |          63     92.65%     92.65% |           5      7.35%    100.00%
system.ruby.L1Cache_Controller.E_IL0.L0_Invalidate_Else::total           68                      
system.ruby.L1Cache_Controller.E_IL0.L0_Ack |        2223     61.22%     61.22% |        1408     38.78%    100.00%
system.ruby.L1Cache_Controller.E_IL0.L0_Ack::total         3631                      
system.ruby.L1Cache_Controller.M_IL0.L0_DataAck |         578     90.60%     90.60% |          60      9.40%    100.00%
system.ruby.L1Cache_Controller.M_IL0.L0_DataAck::total          638                      
system.ruby.L1Cache_Controller.M_IL0.L0_Invalidate_Own |         499      7.06%      7.06% |        6572     92.94%    100.00%
system.ruby.L1Cache_Controller.M_IL0.L0_Invalidate_Own::total         7071                      
system.ruby.L1Cache_Controller.M_IL0.L0_Invalidate_Else |         123     96.85%     96.85% |           4      3.15%    100.00%
system.ruby.L1Cache_Controller.M_IL0.L0_Invalidate_Else::total          127                      
system.ruby.L1Cache_Controller.M_IL0.L0_Ack |          44      0.67%      0.67% |        6516     99.33%    100.00%
system.ruby.L1Cache_Controller.M_IL0.L0_Ack::total         6560                      
system.ruby.L2Cache_Controller.L1_GETS         245477      0.00%      0.00%
system.ruby.L2Cache_Controller.L1_GETX         154261      0.00%      0.00%
system.ruby.L2Cache_Controller.L1_UPGRADE           12      0.00%      0.00%
system.ruby.L2Cache_Controller.L1_PUTX         396919      0.00%      0.00%
system.ruby.L2Cache_Controller.L2_Replacement       153045      0.00%      0.00%
system.ruby.L2Cache_Controller.L2_Replacement_clean        21814      0.00%      0.00%
system.ruby.L2Cache_Controller.Mem_Data        240395      0.00%      0.00%
system.ruby.L2Cache_Controller.Mem_Ack         174859      0.00%      0.00%
system.ruby.L2Cache_Controller.WB_Data            971      0.00%      0.00%
system.ruby.L2Cache_Controller.WB_Data_clean            8      0.00%      0.00%
system.ruby.L2Cache_Controller.Ack                  4      0.00%      0.00%
system.ruby.L2Cache_Controller.Ack_all             59      0.00%      0.00%
system.ruby.L2Cache_Controller.Unblock             22      0.00%      0.00%
system.ruby.L2Cache_Controller.Exclusive_Unblock       399685      0.00%      0.00%
system.ruby.L2Cache_Controller.NP.L1_GETS        86757      0.00%      0.00%
system.ruby.L2Cache_Controller.NP.L1_GETX       153638      0.00%      0.00%
system.ruby.L2Cache_Controller.SS.L1_GETS           38      0.00%      0.00%
system.ruby.L2Cache_Controller.SS.L1_UPGRADE           12      0.00%      0.00%
system.ruby.L2Cache_Controller.SS.L2_Replacement            3      0.00%      0.00%
system.ruby.L2Cache_Controller.SS.L2_Replacement_clean            1      0.00%      0.00%
system.ruby.L2Cache_Controller.M.L1_GETS       158657      0.00%      0.00%
system.ruby.L2Cache_Controller.M.L1_GETX          619      0.00%      0.00%
system.ruby.L2Cache_Controller.M.L2_Replacement       153022      0.00%      0.00%
system.ruby.L2Cache_Controller.M.L2_Replacement_clean        20821      0.00%      0.00%
system.ruby.L2Cache_Controller.MT.L1_GETS           22      0.00%      0.00%
system.ruby.L2Cache_Controller.MT.L1_GETX            3      0.00%      0.00%
system.ruby.L2Cache_Controller.MT.L1_PUTX       396919      0.00%      0.00%
system.ruby.L2Cache_Controller.MT.L2_Replacement           20      0.00%      0.00%
system.ruby.L2Cache_Controller.MT.L2_Replacement_clean          992      0.00%      0.00%
system.ruby.L2Cache_Controller.M_I.L1_GETS            2      0.00%      0.00%
system.ruby.L2Cache_Controller.M_I.L1_GETX            1      0.00%      0.00%
system.ruby.L2Cache_Controller.M_I.Mem_Ack       174859      0.00%      0.00%
system.ruby.L2Cache_Controller.MT_I.WB_Data            8      0.00%      0.00%
system.ruby.L2Cache_Controller.MT_I.Ack_all           12      0.00%      0.00%
system.ruby.L2Cache_Controller.MCT_I.WB_Data          944      0.00%      0.00%
system.ruby.L2Cache_Controller.MCT_I.WB_Data_clean            5      0.00%      0.00%
system.ruby.L2Cache_Controller.MCT_I.Ack_all           43      0.00%      0.00%
system.ruby.L2Cache_Controller.I_I.Ack              1      0.00%      0.00%
system.ruby.L2Cache_Controller.I_I.Ack_all            1      0.00%      0.00%
system.ruby.L2Cache_Controller.S_I.Ack              3      0.00%      0.00%
system.ruby.L2Cache_Controller.S_I.Ack_all            3      0.00%      0.00%
system.ruby.L2Cache_Controller.ISS.L1_GETS            1      0.00%      0.00%
system.ruby.L2Cache_Controller.ISS.Mem_Data        86756      0.00%      0.00%
system.ruby.L2Cache_Controller.IS.Mem_Data            1      0.00%      0.00%
system.ruby.L2Cache_Controller.IM.Mem_Data       153638      0.00%      0.00%
system.ruby.L2Cache_Controller.SS_MB.Exclusive_Unblock           12      0.00%      0.00%
system.ruby.L2Cache_Controller.MT_MB.Exclusive_Unblock       399673      0.00%      0.00%
system.ruby.L2Cache_Controller.MT_IIB.WB_Data           19      0.00%      0.00%
system.ruby.L2Cache_Controller.MT_IIB.WB_Data_clean            3      0.00%      0.00%
system.ruby.L2Cache_Controller.MT_SB.Unblock           22      0.00%      0.00%

---------- End Simulation Statistics   ----------
