
---------- Begin Simulation Statistics ----------
sim_seconds                                  3.028564                       # Number of seconds simulated
sim_ticks                                3028563503000                       # Number of ticks simulated
final_tick                               3028563503000                       # Number of ticks from beginning of simulation (restored from checkpoints and never reset)
sim_freq                                 1000000000000                       # Frequency of simulated ticks
host_inst_rate                                 155032                       # Simulator instruction rate (inst/s)
host_op_rate                                   436799                       # Simulator op (including micro ops) rate (op/s)
host_tick_rate                              262284308                       # Simulator tick rate (ticks/s)
host_mem_usage                                1219896                       # Number of bytes of host memory used
host_seconds                                 11546.87                       # Real time elapsed on the host
sim_insts                                  1790136646                       # Number of instructions simulated
sim_ops                                    5043657157                       # Number of ops (including micro ops) simulated
system.voltage_domain.voltage                       1                       # Voltage in Volts
system.clk_domain.clock                          1000                       # Clock period in ticks
system.mem_ctrls.bytes_read::ruby.dir_cntrl0    113245120                       # Number of bytes read from this memory
system.mem_ctrls.bytes_read::total          113245120                       # Number of bytes read from this memory
system.mem_ctrls.bytes_written::ruby.dir_cntrl0     81161920                       # Number of bytes written to this memory
system.mem_ctrls.bytes_written::total        81161920                       # Number of bytes written to this memory
system.mem_ctrls.num_reads::ruby.dir_cntrl0      1769455                       # Number of read requests responded to by this memory
system.mem_ctrls.num_reads::total             1769455                       # Number of read requests responded to by this memory
system.mem_ctrls.num_writes::ruby.dir_cntrl0      1268155                       # Number of write requests responded to by this memory
system.mem_ctrls.num_writes::total            1268155                       # Number of write requests responded to by this memory
system.mem_ctrls.bw_read::ruby.dir_cntrl0     37392354                       # Total read bandwidth from this memory (bytes/s)
system.mem_ctrls.bw_read::total              37392354                       # Total read bandwidth from this memory (bytes/s)
system.mem_ctrls.bw_write::ruby.dir_cntrl0     26798817                       # Write bandwidth from this memory (bytes/s)
system.mem_ctrls.bw_write::total             26798817                       # Write bandwidth from this memory (bytes/s)
system.mem_ctrls.bw_total::ruby.dir_cntrl0     64191172                       # Total bandwidth to/from this memory (bytes/s)
system.mem_ctrls.bw_total::total             64191172                       # Total bandwidth to/from this memory (bytes/s)
system.mem_ctrls.readReqs                     1769455                       # Number of read requests accepted
system.mem_ctrls.writeReqs                    1268155                       # Number of write requests accepted
system.mem_ctrls.readBursts                   1769455                       # Number of DRAM read bursts, including those serviced by the write queue
system.mem_ctrls.writeBursts                  1268155                       # Number of DRAM write bursts, including those merged in the write queue
system.mem_ctrls.bytesReadDRAM              113235136                       # Total number of bytes read from DRAM
system.mem_ctrls.bytesReadWrQ                    9984                       # Total number of bytes read from write queue
system.mem_ctrls.bytesWritten                81160704                       # Total number of bytes written to DRAM
system.mem_ctrls.bytesReadSys               113245120                       # Total read bytes from the system interface side
system.mem_ctrls.bytesWrittenSys             81161920                       # Total written bytes from the system interface side
system.mem_ctrls.servicedByWrQ                    156                       # Number of DRAM read bursts serviced by the write queue
system.mem_ctrls.mergedWrBursts                     0                       # Number of DRAM write bursts merged with an existing one
system.mem_ctrls.neitherReadNorWriteReqs            0                       # Number of requests that are neither read nor write
system.mem_ctrls.perBankRdBursts::0            110984                       # Per bank write bursts
system.mem_ctrls.perBankRdBursts::1            110165                       # Per bank write bursts
system.mem_ctrls.perBankRdBursts::2            111933                       # Per bank write bursts
system.mem_ctrls.perBankRdBursts::3            112512                       # Per bank write bursts
system.mem_ctrls.perBankRdBursts::4            111644                       # Per bank write bursts
system.mem_ctrls.perBankRdBursts::5            108355                       # Per bank write bursts
system.mem_ctrls.perBankRdBursts::6            110115                       # Per bank write bursts
system.mem_ctrls.perBankRdBursts::7            108953                       # Per bank write bursts
system.mem_ctrls.perBankRdBursts::8            107700                       # Per bank write bursts
system.mem_ctrls.perBankRdBursts::9            111967                       # Per bank write bursts
system.mem_ctrls.perBankRdBursts::10           112935                       # Per bank write bursts
system.mem_ctrls.perBankRdBursts::11           111735                       # Per bank write bursts
system.mem_ctrls.perBankRdBursts::12           109448                       # Per bank write bursts
system.mem_ctrls.perBankRdBursts::13           110055                       # Per bank write bursts
system.mem_ctrls.perBankRdBursts::14           110653                       # Per bank write bursts
system.mem_ctrls.perBankRdBursts::15           110145                       # Per bank write bursts
system.mem_ctrls.perBankWrBursts::0             78816                       # Per bank write bursts
system.mem_ctrls.perBankWrBursts::1             78202                       # Per bank write bursts
system.mem_ctrls.perBankWrBursts::2             79137                       # Per bank write bursts
system.mem_ctrls.perBankWrBursts::3             79339                       # Per bank write bursts
system.mem_ctrls.perBankWrBursts::4             78770                       # Per bank write bursts
system.mem_ctrls.perBankWrBursts::5             79190                       # Per bank write bursts
system.mem_ctrls.perBankWrBursts::6             79715                       # Per bank write bursts
system.mem_ctrls.perBankWrBursts::7             79165                       # Per bank write bursts
system.mem_ctrls.perBankWrBursts::8             78189                       # Per bank write bursts
system.mem_ctrls.perBankWrBursts::9             80235                       # Per bank write bursts
system.mem_ctrls.perBankWrBursts::10            80331                       # Per bank write bursts
system.mem_ctrls.perBankWrBursts::11            80355                       # Per bank write bursts
system.mem_ctrls.perBankWrBursts::12            79610                       # Per bank write bursts
system.mem_ctrls.perBankWrBursts::13            79888                       # Per bank write bursts
system.mem_ctrls.perBankWrBursts::14            79029                       # Per bank write bursts
system.mem_ctrls.perBankWrBursts::15            78165                       # Per bank write bursts
system.mem_ctrls.numRdRetry                         0                       # Number of times read queue was full causing retry
system.mem_ctrls.numWrRetry                         0                       # Number of times write queue was full causing retry
system.mem_ctrls.totGap                  3028563201500                       # Total gap between requests
system.mem_ctrls.readPktSize::0                     0                       # Read request sizes (log2)
system.mem_ctrls.readPktSize::1                     0                       # Read request sizes (log2)
system.mem_ctrls.readPktSize::2                     0                       # Read request sizes (log2)
system.mem_ctrls.readPktSize::3                     0                       # Read request sizes (log2)
system.mem_ctrls.readPktSize::4                     0                       # Read request sizes (log2)
system.mem_ctrls.readPktSize::5                     0                       # Read request sizes (log2)
system.mem_ctrls.readPktSize::6               1769455                       # Read request sizes (log2)
system.mem_ctrls.writePktSize::0                    0                       # Write request sizes (log2)
system.mem_ctrls.writePktSize::1                    0                       # Write request sizes (log2)
system.mem_ctrls.writePktSize::2                    0                       # Write request sizes (log2)
system.mem_ctrls.writePktSize::3                    0                       # Write request sizes (log2)
system.mem_ctrls.writePktSize::4                    0                       # Write request sizes (log2)
system.mem_ctrls.writePktSize::5                    0                       # Write request sizes (log2)
system.mem_ctrls.writePktSize::6              1268155                       # Write request sizes (log2)
system.mem_ctrls.rdQLenPdf::0                 1601435                       # What read queue length does an incoming req see
system.mem_ctrls.rdQLenPdf::1                   65742                       # What read queue length does an incoming req see
system.mem_ctrls.rdQLenPdf::2                   46272                       # What read queue length does an incoming req see
system.mem_ctrls.rdQLenPdf::3                   27957                       # What read queue length does an incoming req see
system.mem_ctrls.rdQLenPdf::4                   14919                       # What read queue length does an incoming req see
system.mem_ctrls.rdQLenPdf::5                    8308                       # What read queue length does an incoming req see
system.mem_ctrls.rdQLenPdf::6                    3990                       # What read queue length does an incoming req see
system.mem_ctrls.rdQLenPdf::7                     676                       # What read queue length does an incoming req see
system.mem_ctrls.rdQLenPdf::8                       0                       # What read queue length does an incoming req see
system.mem_ctrls.rdQLenPdf::9                       0                       # What read queue length does an incoming req see
system.mem_ctrls.rdQLenPdf::10                      0                       # What read queue length does an incoming req see
system.mem_ctrls.rdQLenPdf::11                      0                       # What read queue length does an incoming req see
system.mem_ctrls.rdQLenPdf::12                      0                       # What read queue length does an incoming req see
system.mem_ctrls.rdQLenPdf::13                      0                       # What read queue length does an incoming req see
system.mem_ctrls.rdQLenPdf::14                      0                       # What read queue length does an incoming req see
system.mem_ctrls.rdQLenPdf::15                      0                       # What read queue length does an incoming req see
system.mem_ctrls.rdQLenPdf::16                      0                       # What read queue length does an incoming req see
system.mem_ctrls.rdQLenPdf::17                      0                       # What read queue length does an incoming req see
system.mem_ctrls.rdQLenPdf::18                      0                       # What read queue length does an incoming req see
system.mem_ctrls.rdQLenPdf::19                      0                       # What read queue length does an incoming req see
system.mem_ctrls.rdQLenPdf::20                      0                       # What read queue length does an incoming req see
system.mem_ctrls.rdQLenPdf::21                      0                       # What read queue length does an incoming req see
system.mem_ctrls.rdQLenPdf::22                      0                       # What read queue length does an incoming req see
system.mem_ctrls.rdQLenPdf::23                      0                       # What read queue length does an incoming req see
system.mem_ctrls.rdQLenPdf::24                      0                       # What read queue length does an incoming req see
system.mem_ctrls.rdQLenPdf::25                      0                       # What read queue length does an incoming req see
system.mem_ctrls.rdQLenPdf::26                      0                       # What read queue length does an incoming req see
system.mem_ctrls.rdQLenPdf::27                      0                       # What read queue length does an incoming req see
system.mem_ctrls.rdQLenPdf::28                      0                       # What read queue length does an incoming req see
system.mem_ctrls.rdQLenPdf::29                      0                       # What read queue length does an incoming req see
system.mem_ctrls.rdQLenPdf::30                      0                       # What read queue length does an incoming req see
system.mem_ctrls.rdQLenPdf::31                      0                       # What read queue length does an incoming req see
system.mem_ctrls.wrQLenPdf::0                       1                       # What write queue length does an incoming req see
system.mem_ctrls.wrQLenPdf::1                       1                       # What write queue length does an incoming req see
system.mem_ctrls.wrQLenPdf::2                       1                       # What write queue length does an incoming req see
system.mem_ctrls.wrQLenPdf::3                       1                       # What write queue length does an incoming req see
system.mem_ctrls.wrQLenPdf::4                       1                       # What write queue length does an incoming req see
system.mem_ctrls.wrQLenPdf::5                       1                       # What write queue length does an incoming req see
system.mem_ctrls.wrQLenPdf::6                       1                       # What write queue length does an incoming req see
system.mem_ctrls.wrQLenPdf::7                       1                       # What write queue length does an incoming req see
system.mem_ctrls.wrQLenPdf::8                       1                       # What write queue length does an incoming req see
system.mem_ctrls.wrQLenPdf::9                       1                       # What write queue length does an incoming req see
system.mem_ctrls.wrQLenPdf::10                      1                       # What write queue length does an incoming req see
system.mem_ctrls.wrQLenPdf::11                      1                       # What write queue length does an incoming req see
system.mem_ctrls.wrQLenPdf::12                      1                       # What write queue length does an incoming req see
system.mem_ctrls.wrQLenPdf::13                      1                       # What write queue length does an incoming req see
system.mem_ctrls.wrQLenPdf::14                      1                       # What write queue length does an incoming req see
system.mem_ctrls.wrQLenPdf::15                   2752                       # What write queue length does an incoming req see
system.mem_ctrls.wrQLenPdf::16                   2879                       # What write queue length does an incoming req see
system.mem_ctrls.wrQLenPdf::17                  72969                       # What write queue length does an incoming req see
system.mem_ctrls.wrQLenPdf::18                  74903                       # What write queue length does an incoming req see
system.mem_ctrls.wrQLenPdf::19                  76542                       # What write queue length does an incoming req see
system.mem_ctrls.wrQLenPdf::20                  78017                       # What write queue length does an incoming req see
system.mem_ctrls.wrQLenPdf::21                  79003                       # What write queue length does an incoming req see
system.mem_ctrls.wrQLenPdf::22                  79474                       # What write queue length does an incoming req see
system.mem_ctrls.wrQLenPdf::23                  79707                       # What write queue length does an incoming req see
system.mem_ctrls.wrQLenPdf::24                  79742                       # What write queue length does an incoming req see
system.mem_ctrls.wrQLenPdf::25                  79696                       # What write queue length does an incoming req see
system.mem_ctrls.wrQLenPdf::26                  79513                       # What write queue length does an incoming req see
system.mem_ctrls.wrQLenPdf::27                  79520                       # What write queue length does an incoming req see
system.mem_ctrls.wrQLenPdf::28                  79504                       # What write queue length does an incoming req see
system.mem_ctrls.wrQLenPdf::29                  79548                       # What write queue length does an incoming req see
system.mem_ctrls.wrQLenPdf::30                  79631                       # What write queue length does an incoming req see
system.mem_ctrls.wrQLenPdf::31                  80168                       # What write queue length does an incoming req see
system.mem_ctrls.wrQLenPdf::32                  80069                       # What write queue length does an incoming req see
system.mem_ctrls.wrQLenPdf::33                    877                       # What write queue length does an incoming req see
system.mem_ctrls.wrQLenPdf::34                    501                       # What write queue length does an incoming req see
system.mem_ctrls.wrQLenPdf::35                    302                       # What write queue length does an incoming req see
system.mem_ctrls.wrQLenPdf::36                    261                       # What write queue length does an incoming req see
system.mem_ctrls.wrQLenPdf::37                    241                       # What write queue length does an incoming req see
system.mem_ctrls.wrQLenPdf::38                    210                       # What write queue length does an incoming req see
system.mem_ctrls.wrQLenPdf::39                    173                       # What write queue length does an incoming req see
system.mem_ctrls.wrQLenPdf::40                    175                       # What write queue length does an incoming req see
system.mem_ctrls.wrQLenPdf::41                    186                       # What write queue length does an incoming req see
system.mem_ctrls.wrQLenPdf::42                    176                       # What write queue length does an incoming req see
system.mem_ctrls.wrQLenPdf::43                    181                       # What write queue length does an incoming req see
system.mem_ctrls.wrQLenPdf::44                    165                       # What write queue length does an incoming req see
system.mem_ctrls.wrQLenPdf::45                    156                       # What write queue length does an incoming req see
system.mem_ctrls.wrQLenPdf::46                    146                       # What write queue length does an incoming req see
system.mem_ctrls.wrQLenPdf::47                    127                       # What write queue length does an incoming req see
system.mem_ctrls.wrQLenPdf::48                    116                       # What write queue length does an incoming req see
system.mem_ctrls.wrQLenPdf::49                    106                       # What write queue length does an incoming req see
system.mem_ctrls.wrQLenPdf::50                     90                       # What write queue length does an incoming req see
system.mem_ctrls.wrQLenPdf::51                     67                       # What write queue length does an incoming req see
system.mem_ctrls.wrQLenPdf::52                     69                       # What write queue length does an incoming req see
system.mem_ctrls.wrQLenPdf::53                     63                       # What write queue length does an incoming req see
system.mem_ctrls.wrQLenPdf::54                     56                       # What write queue length does an incoming req see
system.mem_ctrls.wrQLenPdf::55                     37                       # What write queue length does an incoming req see
system.mem_ctrls.wrQLenPdf::56                     19                       # What write queue length does an incoming req see
system.mem_ctrls.wrQLenPdf::57                      3                       # What write queue length does an incoming req see
system.mem_ctrls.wrQLenPdf::58                      0                       # What write queue length does an incoming req see
system.mem_ctrls.wrQLenPdf::59                      0                       # What write queue length does an incoming req see
system.mem_ctrls.wrQLenPdf::60                      0                       # What write queue length does an incoming req see
system.mem_ctrls.wrQLenPdf::61                      0                       # What write queue length does an incoming req see
system.mem_ctrls.wrQLenPdf::62                      0                       # What write queue length does an incoming req see
system.mem_ctrls.wrQLenPdf::63                      0                       # What write queue length does an incoming req see
system.mem_ctrls.bytesPerActivate::samples       488368                       # Bytes accessed per row activation
system.mem_ctrls.bytesPerActivate::mean    398.051830                       # Bytes accessed per row activation
system.mem_ctrls.bytesPerActivate::gmean   264.585428                       # Bytes accessed per row activation
system.mem_ctrls.bytesPerActivate::stdev   327.818335                       # Bytes accessed per row activation
system.mem_ctrls.bytesPerActivate::0-127       114114     23.37%     23.37% # Bytes accessed per row activation
system.mem_ctrls.bytesPerActivate::128-255        60900     12.47%     35.84% # Bytes accessed per row activation
system.mem_ctrls.bytesPerActivate::256-383       115811     23.71%     59.55% # Bytes accessed per row activation
system.mem_ctrls.bytesPerActivate::384-511        41706      8.54%     68.09% # Bytes accessed per row activation
system.mem_ctrls.bytesPerActivate::512-639        35597      7.29%     75.38% # Bytes accessed per row activation
system.mem_ctrls.bytesPerActivate::640-767        25777      5.28%     80.66% # Bytes accessed per row activation
system.mem_ctrls.bytesPerActivate::768-895        17369      3.56%     84.21% # Bytes accessed per row activation
system.mem_ctrls.bytesPerActivate::896-1023        12509      2.56%     86.78% # Bytes accessed per row activation
system.mem_ctrls.bytesPerActivate::1024-1151        64585     13.22%    100.00% # Bytes accessed per row activation
system.mem_ctrls.bytesPerActivate::total       488368                       # Bytes accessed per row activation
system.mem_ctrls.rdPerTurnAround::samples        78903                       # Reads before turning the bus around for writes
system.mem_ctrls.rdPerTurnAround::mean      22.423672                       # Reads before turning the bus around for writes
system.mem_ctrls.rdPerTurnAround::gmean     17.015700                       # Reads before turning the bus around for writes
system.mem_ctrls.rdPerTurnAround::stdev   1096.143028                       # Reads before turning the bus around for writes
system.mem_ctrls.rdPerTurnAround::0-16383        78902    100.00%    100.00% # Reads before turning the bus around for writes
system.mem_ctrls.rdPerTurnAround::294912-311295            1      0.00%    100.00% # Reads before turning the bus around for writes
system.mem_ctrls.rdPerTurnAround::total         78903                       # Reads before turning the bus around for writes
system.mem_ctrls.wrPerTurnAround::samples        78903                       # Writes before turning the bus around for reads
system.mem_ctrls.wrPerTurnAround::mean      16.072089                       # Writes before turning the bus around for reads
system.mem_ctrls.wrPerTurnAround::gmean     16.068048                       # Writes before turning the bus around for reads
system.mem_ctrls.wrPerTurnAround::stdev      0.374059                       # Writes before turning the bus around for reads
system.mem_ctrls.wrPerTurnAround::16            76062     96.40%     96.40% # Writes before turning the bus around for reads
system.mem_ctrls.wrPerTurnAround::17               17      0.02%     96.42% # Writes before turning the bus around for reads
system.mem_ctrls.wrPerTurnAround::18             2808      3.56%     99.98% # Writes before turning the bus around for reads
system.mem_ctrls.wrPerTurnAround::19               12      0.02%     99.99% # Writes before turning the bus around for reads
system.mem_ctrls.wrPerTurnAround::20                2      0.00%    100.00% # Writes before turning the bus around for reads
system.mem_ctrls.wrPerTurnAround::21                1      0.00%    100.00% # Writes before turning the bus around for reads
system.mem_ctrls.wrPerTurnAround::22                1      0.00%    100.00% # Writes before turning the bus around for reads
system.mem_ctrls.wrPerTurnAround::total         78903                       # Writes before turning the bus around for reads
system.mem_ctrls.totQLat                  30891006813                       # Total ticks spent queuing
system.mem_ctrls.totMemAccLat             64065363063                       # Total ticks spent from burst creation until serviced by the DRAM
system.mem_ctrls.totBusLat                 8846495000                       # Total ticks spent in databus transfers
system.mem_ctrls.avgQLat                     17459.46                       # Average queueing delay per DRAM burst
system.mem_ctrls.avgBusLat                    5000.00                       # Average bus latency per DRAM burst
system.mem_ctrls.avgMemAccLat                36209.46                       # Average memory access latency per DRAM burst
system.mem_ctrls.avgRdBW                        37.39                       # Average DRAM read bandwidth in MiByte/s
system.mem_ctrls.avgWrBW                        26.80                       # Average achieved write bandwidth in MiByte/s
system.mem_ctrls.avgRdBWSys                     37.39                       # Average system read bandwidth in MiByte/s
system.mem_ctrls.avgWrBWSys                     26.80                       # Average system write bandwidth in MiByte/s
system.mem_ctrls.peakBW                      12800.00                       # Theoretical peak bandwidth in MiByte/s
system.mem_ctrls.busUtil                         0.50                       # Data bus utilization in percentage
system.mem_ctrls.busUtilRead                     0.29                       # Data bus utilization in percentage for reads
system.mem_ctrls.busUtilWrite                    0.21                       # Data bus utilization in percentage for writes
system.mem_ctrls.avgRdQLen                       1.01                       # Average read queue length when enqueuing
system.mem_ctrls.avgWrQLen                      22.08                       # Average write queue length when enqueuing
system.mem_ctrls.readRowHits                  1399519                       # Number of row buffer hits during reads
system.mem_ctrls.writeRowHits                 1149547                       # Number of row buffer hits during writes
system.mem_ctrls.readRowHitRate                 79.10                       # Row buffer hit rate for reads
system.mem_ctrls.writeRowHitRate                90.65                       # Row buffer hit rate for writes
system.mem_ctrls.avgGap                     997021.74                       # Average gap between requests
system.mem_ctrls.pageHitRate                    83.92                       # Row buffer hit rate, read and write combined
system.mem_ctrls_0.actEnergy               1841691600                       # Energy for activate commands per rank (pJ)
system.mem_ctrls_0.preEnergy               1004891250                       # Energy for precharge commands per rank (pJ)
system.mem_ctrls_0.readEnergy              6900355800                       # Energy for read commands per rank (pJ)
system.mem_ctrls_0.writeEnergy             4097524320                       # Energy for write commands per rank (pJ)
system.mem_ctrls_0.refreshEnergy         197811023280                       # Energy for refresh commands per rank (pJ)
system.mem_ctrls_0.actBackEnergy         538827388560                       # Energy for active background per rank (pJ)
system.mem_ctrls_0.preBackEnergy         1344482447250                       # Energy for precharge background per rank (pJ)
system.mem_ctrls_0.totalEnergy           2094965322060                       # Total energy per rank (pJ)
system.mem_ctrls_0.averagePower            691.735662                       # Core power per rank (mW)
system.mem_ctrls_0.memoryStateTime::IDLE 2233218648250                       # Time in different power states
system.mem_ctrls_0.memoryStateTime::REF  101130380000                       # Time in different power states
system.mem_ctrls_0.memoryStateTime::PRE_PDN            0                       # Time in different power states
system.mem_ctrls_0.memoryStateTime::ACT  694214404250                       # Time in different power states
system.mem_ctrls_0.memoryStateTime::ACT_PDN            0                       # Time in different power states
system.mem_ctrls_1.actEnergy               1850370480                       # Energy for activate commands per rank (pJ)
system.mem_ctrls_1.preEnergy               1009626750                       # Energy for precharge commands per rank (pJ)
system.mem_ctrls_1.readEnergy              6900168600                       # Energy for read commands per rank (pJ)
system.mem_ctrls_1.writeEnergy             4119996960                       # Energy for write commands per rank (pJ)
system.mem_ctrls_1.refreshEnergy         197811023280                       # Energy for refresh commands per rank (pJ)
system.mem_ctrls_1.actBackEnergy         538515387090                       # Energy for active background per rank (pJ)
system.mem_ctrls_1.preBackEnergy         1344756132750                       # Energy for precharge background per rank (pJ)
system.mem_ctrls_1.totalEnergy           2094962705910                       # Total energy per rank (pJ)
system.mem_ctrls_1.averagePower            691.734798                       # Core power per rank (mW)
system.mem_ctrls_1.memoryStateTime::IDLE 2233674688250                       # Time in different power states
system.mem_ctrls_1.memoryStateTime::REF  101130380000                       # Time in different power states
system.mem_ctrls_1.memoryStateTime::PRE_PDN            0                       # Time in different power states
system.mem_ctrls_1.memoryStateTime::ACT  693758364250                       # Time in different power states
system.mem_ctrls_1.memoryStateTime::ACT_PDN            0                       # Time in different power states
system.cpu_voltage_domain.voltage                   1                       # Voltage in Volts
system.cpu_clk_domain.clock                       500                       # Clock period in ticks
system.cpu0.apic_clk_domain.clock                8000                       # Clock period in ticks
system.cpu0.workload.num_syscalls                 272                       # Number of system calls
system.cpu0.numCycles                      6057127006                       # number of cpu cycles simulated
system.cpu0.numWorkItemsStarted                     0                       # number of work items this cpu started
system.cpu0.numWorkItemsCompleted                   0                       # number of work items this cpu completed
system.cpu0.committedInsts                 1673995286                       # Number of instructions committed
system.cpu0.committedOps                   4811387053                       # Number of ops (including micro ops) committed
system.cpu0.num_int_alu_accesses           4537487046                       # Number of integer alu accesses
system.cpu0.num_fp_alu_accesses             116281176                       # Number of float alu accesses
system.cpu0.num_func_calls                  163074934                       # number of times a function call or return occured
system.cpu0.num_conditional_control_insts    369491692                       # number of instructions that are conditional controls
system.cpu0.num_int_insts                  4537487046                       # number of integer instructions
system.cpu0.num_fp_insts                    116281176                       # number of float instructions
system.cpu0.num_int_register_reads         9554102607                       # number of times the integer registers were read
system.cpu0.num_int_register_writes        4529373848                       # number of times the integer registers were written
system.cpu0.num_fp_register_reads           186868397                       # number of times the floating registers were read
system.cpu0.num_fp_register_writes           91388796                       # number of times the floating registers were written
system.cpu0.num_cc_register_reads          3840546616                       # number of times the CC registers were read
system.cpu0.num_cc_register_writes         1441168360                       # number of times the CC registers were written
system.cpu0.num_mem_refs                    725255881                       # number of memory refs
system.cpu0.num_load_insts                  440226295                       # Number of load instructions
system.cpu0.num_store_insts                 285029586                       # Number of store instructions
system.cpu0.num_idle_cycles                  0.002000                       # Number of idle cycles
system.cpu0.num_busy_cycles              6057127005.998000                       # Number of busy cycles
system.cpu0.not_idle_fraction                1.000000                       # Percentage of non-idle cycles
system.cpu0.idle_fraction                    0.000000                       # Percentage of idle cycles
system.cpu0.Branches                        610744660                       # Number of branches fetched
system.cpu0.op_class::No_OpClass             94599461      1.97%      1.97% # Class of executed instruction
system.cpu0.op_class::IntAlu               3492845884     72.60%     74.56% # Class of executed instruction
system.cpu0.op_class::IntMult                     490      0.00%     74.56% # Class of executed instruction
system.cpu0.op_class::IntDiv                407297348      8.47%     83.03% # Class of executed instruction
system.cpu0.op_class::FloatAdd               91387989      1.90%     84.93% # Class of executed instruction
system.cpu0.op_class::FloatCmp                      0      0.00%     84.93% # Class of executed instruction
system.cpu0.op_class::FloatCvt                      0      0.00%     84.93% # Class of executed instruction
system.cpu0.op_class::FloatMult                     0      0.00%     84.93% # Class of executed instruction
system.cpu0.op_class::FloatDiv                      0      0.00%     84.93% # Class of executed instruction
system.cpu0.op_class::FloatSqrt                     0      0.00%     84.93% # Class of executed instruction
system.cpu0.op_class::SimdAdd                       0      0.00%     84.93% # Class of executed instruction
system.cpu0.op_class::SimdAddAcc                    0      0.00%     84.93% # Class of executed instruction
system.cpu0.op_class::SimdAlu                       0      0.00%     84.93% # Class of executed instruction
system.cpu0.op_class::SimdCmp                       0      0.00%     84.93% # Class of executed instruction
system.cpu0.op_class::SimdCvt                       0      0.00%     84.93% # Class of executed instruction
system.cpu0.op_class::SimdMisc                      0      0.00%     84.93% # Class of executed instruction
system.cpu0.op_class::SimdMult                      0      0.00%     84.93% # Class of executed instruction
system.cpu0.op_class::SimdMultAcc                   0      0.00%     84.93% # Class of executed instruction
system.cpu0.op_class::SimdShift                     0      0.00%     84.93% # Class of executed instruction
system.cpu0.op_class::SimdShiftAcc                  0      0.00%     84.93% # Class of executed instruction
system.cpu0.op_class::SimdSqrt                      0      0.00%     84.93% # Class of executed instruction
system.cpu0.op_class::SimdFloatAdd                  0      0.00%     84.93% # Class of executed instruction
system.cpu0.op_class::SimdFloatAlu                  0      0.00%     84.93% # Class of executed instruction
system.cpu0.op_class::SimdFloatCmp                  0      0.00%     84.93% # Class of executed instruction
system.cpu0.op_class::SimdFloatCvt                  0      0.00%     84.93% # Class of executed instruction
system.cpu0.op_class::SimdFloatDiv                  0      0.00%     84.93% # Class of executed instruction
system.cpu0.op_class::SimdFloatMisc                 0      0.00%     84.93% # Class of executed instruction
system.cpu0.op_class::SimdFloatMult                 0      0.00%     84.93% # Class of executed instruction
system.cpu0.op_class::SimdFloatMultAcc              0      0.00%     84.93% # Class of executed instruction
system.cpu0.op_class::SimdFloatSqrt                 0      0.00%     84.93% # Class of executed instruction
system.cpu0.op_class::MemRead               440226295      9.15%     94.08% # Class of executed instruction
system.cpu0.op_class::MemWrite              285029586      5.92%    100.00% # Class of executed instruction
system.cpu0.op_class::IprAccess                     0      0.00%    100.00% # Class of executed instruction
system.cpu0.op_class::InstPrefetch                  0      0.00%    100.00% # Class of executed instruction
system.cpu0.op_class::total                4811387053                       # Class of executed instruction
system.cpu1.apic_clk_domain.clock                8000                       # Clock period in ticks
system.cpu1.numCycles                      6054346595                       # number of cpu cycles simulated
system.cpu1.numWorkItemsStarted                     0                       # number of work items this cpu started
system.cpu1.numWorkItemsCompleted                   0                       # number of work items this cpu completed
system.cpu1.committedInsts                   14517670                       # Number of instructions committed
system.cpu1.committedOps                     29033763                       # Number of ops (including micro ops) committed
system.cpu1.num_int_alu_accesses             21791563                       # Number of integer alu accesses
system.cpu1.num_fp_alu_accesses              14221533                       # Number of float alu accesses
system.cpu1.num_func_calls                      40491                       # number of times a function call or return occured
system.cpu1.num_conditional_control_insts      1783388                       # number of instructions that are conditional controls
system.cpu1.num_int_insts                    21791563                       # number of integer instructions
system.cpu1.num_fp_insts                     14221533                       # number of float instructions
system.cpu1.num_int_register_reads           38295446                       # number of times the integer registers were read
system.cpu1.num_int_register_writes          13006901                       # number of times the integer registers were written
system.cpu1.num_fp_register_reads            21544607                       # number of times the floating registers were read
system.cpu1.num_fp_register_writes           14201308                       # number of times the floating registers were written
system.cpu1.num_cc_register_reads            10720595                       # number of times the CC registers were read
system.cpu1.num_cc_register_writes           10714264                       # number of times the CC registers were written
system.cpu1.num_mem_refs                      7083855                       # number of memory refs
system.cpu1.num_load_insts                    7043298                       # Number of load instructions
system.cpu1.num_store_insts                     40557                       # Number of store instructions
system.cpu1.num_idle_cycles              5988193660.214414                       # Number of idle cycles
system.cpu1.num_busy_cycles              66152934.785586                       # Number of busy cycles
system.cpu1.not_idle_fraction                0.010927                       # Percentage of non-idle cycles
system.cpu1.idle_fraction                    0.989073                       # Percentage of idle cycles
system.cpu1.Branches                          1845679                       # Number of branches fetched
system.cpu1.op_class::No_OpClass                    2      0.00%      0.00% # Class of executed instruction
system.cpu1.op_class::IntAlu                 14647022     50.45%     50.45% # Class of executed instruction
system.cpu1.op_class::IntMult                   60671      0.21%     50.66% # Class of executed instruction
system.cpu1.op_class::IntDiv                       14      0.00%     50.66% # Class of executed instruction
system.cpu1.op_class::FloatAdd                7242199     24.94%     75.60% # Class of executed instruction
system.cpu1.op_class::FloatCmp                      0      0.00%     75.60% # Class of executed instruction
system.cpu1.op_class::FloatCvt                      0      0.00%     75.60% # Class of executed instruction
system.cpu1.op_class::FloatMult                     0      0.00%     75.60% # Class of executed instruction
system.cpu1.op_class::FloatDiv                      0      0.00%     75.60% # Class of executed instruction
system.cpu1.op_class::FloatSqrt                     0      0.00%     75.60% # Class of executed instruction
system.cpu1.op_class::SimdAdd                       0      0.00%     75.60% # Class of executed instruction
system.cpu1.op_class::SimdAddAcc                    0      0.00%     75.60% # Class of executed instruction
system.cpu1.op_class::SimdAlu                       0      0.00%     75.60% # Class of executed instruction
system.cpu1.op_class::SimdCmp                       0      0.00%     75.60% # Class of executed instruction
system.cpu1.op_class::SimdCvt                       0      0.00%     75.60% # Class of executed instruction
system.cpu1.op_class::SimdMisc                      0      0.00%     75.60% # Class of executed instruction
system.cpu1.op_class::SimdMult                      0      0.00%     75.60% # Class of executed instruction
system.cpu1.op_class::SimdMultAcc                   0      0.00%     75.60% # Class of executed instruction
system.cpu1.op_class::SimdShift                     0      0.00%     75.60% # Class of executed instruction
system.cpu1.op_class::SimdShiftAcc                  0      0.00%     75.60% # Class of executed instruction
system.cpu1.op_class::SimdSqrt                      0      0.00%     75.60% # Class of executed instruction
system.cpu1.op_class::SimdFloatAdd                  0      0.00%     75.60% # Class of executed instruction
system.cpu1.op_class::SimdFloatAlu                  0      0.00%     75.60% # Class of executed instruction
system.cpu1.op_class::SimdFloatCmp                  0      0.00%     75.60% # Class of executed instruction
system.cpu1.op_class::SimdFloatCvt                  0      0.00%     75.60% # Class of executed instruction
system.cpu1.op_class::SimdFloatDiv                  0      0.00%     75.60% # Class of executed instruction
system.cpu1.op_class::SimdFloatMisc                 0      0.00%     75.60% # Class of executed instruction
system.cpu1.op_class::SimdFloatMult                 0      0.00%     75.60% # Class of executed instruction
system.cpu1.op_class::SimdFloatMultAcc              0      0.00%     75.60% # Class of executed instruction
system.cpu1.op_class::SimdFloatSqrt                 0      0.00%     75.60% # Class of executed instruction
system.cpu1.op_class::MemRead                 7043298     24.26%     99.86% # Class of executed instruction
system.cpu1.op_class::MemWrite                  40557      0.14%    100.00% # Class of executed instruction
system.cpu1.op_class::IprAccess                     0      0.00%    100.00% # Class of executed instruction
system.cpu1.op_class::InstPrefetch                  0      0.00%    100.00% # Class of executed instruction
system.cpu1.op_class::total                  29033763                       # Class of executed instruction
system.cpu2.apic_clk_domain.clock                8000                       # Clock period in ticks
system.cpu2.numCycles                      6054223807                       # number of cpu cycles simulated
system.cpu2.numWorkItemsStarted                     0                       # number of work items this cpu started
system.cpu2.numWorkItemsCompleted                   0                       # number of work items this cpu completed
system.cpu2.committedInsts                   14517670                       # Number of instructions committed
system.cpu2.committedOps                     29033763                       # Number of ops (including micro ops) committed
system.cpu2.num_int_alu_accesses             21791563                       # Number of integer alu accesses
system.cpu2.num_fp_alu_accesses              14221533                       # Number of float alu accesses
system.cpu2.num_func_calls                      40491                       # number of times a function call or return occured
system.cpu2.num_conditional_control_insts      1783388                       # number of instructions that are conditional controls
system.cpu2.num_int_insts                    21791563                       # number of integer instructions
system.cpu2.num_fp_insts                     14221533                       # number of float instructions
system.cpu2.num_int_register_reads           38295446                       # number of times the integer registers were read
system.cpu2.num_int_register_writes          13006901                       # number of times the integer registers were written
system.cpu2.num_fp_register_reads            21544607                       # number of times the floating registers were read
system.cpu2.num_fp_register_writes           14201308                       # number of times the floating registers were written
system.cpu2.num_cc_register_reads            10720595                       # number of times the CC registers were read
system.cpu2.num_cc_register_writes           10714264                       # number of times the CC registers were written
system.cpu2.num_mem_refs                      7083855                       # number of memory refs
system.cpu2.num_load_insts                    7043298                       # Number of load instructions
system.cpu2.num_store_insts                     40557                       # Number of store instructions
system.cpu2.num_idle_cycles              5988195681.653005                       # Number of idle cycles
system.cpu2.num_busy_cycles              66028125.346996                       # Number of busy cycles
system.cpu2.not_idle_fraction                0.010906                       # Percentage of non-idle cycles
system.cpu2.idle_fraction                    0.989094                       # Percentage of idle cycles
system.cpu2.Branches                          1845679                       # Number of branches fetched
system.cpu2.op_class::No_OpClass                    2      0.00%      0.00% # Class of executed instruction
system.cpu2.op_class::IntAlu                 14647022     50.45%     50.45% # Class of executed instruction
system.cpu2.op_class::IntMult                   60671      0.21%     50.66% # Class of executed instruction
system.cpu2.op_class::IntDiv                       14      0.00%     50.66% # Class of executed instruction
system.cpu2.op_class::FloatAdd                7242199     24.94%     75.60% # Class of executed instruction
system.cpu2.op_class::FloatCmp                      0      0.00%     75.60% # Class of executed instruction
system.cpu2.op_class::FloatCvt                      0      0.00%     75.60% # Class of executed instruction
system.cpu2.op_class::FloatMult                     0      0.00%     75.60% # Class of executed instruction
system.cpu2.op_class::FloatDiv                      0      0.00%     75.60% # Class of executed instruction
system.cpu2.op_class::FloatSqrt                     0      0.00%     75.60% # Class of executed instruction
system.cpu2.op_class::SimdAdd                       0      0.00%     75.60% # Class of executed instruction
system.cpu2.op_class::SimdAddAcc                    0      0.00%     75.60% # Class of executed instruction
system.cpu2.op_class::SimdAlu                       0      0.00%     75.60% # Class of executed instruction
system.cpu2.op_class::SimdCmp                       0      0.00%     75.60% # Class of executed instruction
system.cpu2.op_class::SimdCvt                       0      0.00%     75.60% # Class of executed instruction
system.cpu2.op_class::SimdMisc                      0      0.00%     75.60% # Class of executed instruction
system.cpu2.op_class::SimdMult                      0      0.00%     75.60% # Class of executed instruction
system.cpu2.op_class::SimdMultAcc                   0      0.00%     75.60% # Class of executed instruction
system.cpu2.op_class::SimdShift                     0      0.00%     75.60% # Class of executed instruction
system.cpu2.op_class::SimdShiftAcc                  0      0.00%     75.60% # Class of executed instruction
system.cpu2.op_class::SimdSqrt                      0      0.00%     75.60% # Class of executed instruction
system.cpu2.op_class::SimdFloatAdd                  0      0.00%     75.60% # Class of executed instruction
system.cpu2.op_class::SimdFloatAlu                  0      0.00%     75.60% # Class of executed instruction
system.cpu2.op_class::SimdFloatCmp                  0      0.00%     75.60% # Class of executed instruction
system.cpu2.op_class::SimdFloatCvt                  0      0.00%     75.60% # Class of executed instruction
system.cpu2.op_class::SimdFloatDiv                  0      0.00%     75.60% # Class of executed instruction
system.cpu2.op_class::SimdFloatMisc                 0      0.00%     75.60% # Class of executed instruction
system.cpu2.op_class::SimdFloatMult                 0      0.00%     75.60% # Class of executed instruction
system.cpu2.op_class::SimdFloatMultAcc              0      0.00%     75.60% # Class of executed instruction
system.cpu2.op_class::SimdFloatSqrt                 0      0.00%     75.60% # Class of executed instruction
system.cpu2.op_class::MemRead                 7043298     24.26%     99.86% # Class of executed instruction
system.cpu2.op_class::MemWrite                  40557      0.14%    100.00% # Class of executed instruction
system.cpu2.op_class::IprAccess                     0      0.00%    100.00% # Class of executed instruction
system.cpu2.op_class::InstPrefetch                  0      0.00%    100.00% # Class of executed instruction
system.cpu2.op_class::total                  29033763                       # Class of executed instruction
system.cpu3.apic_clk_domain.clock                8000                       # Clock period in ticks
system.cpu3.numCycles                      6054958669                       # number of cpu cycles simulated
system.cpu3.numWorkItemsStarted                     0                       # number of work items this cpu started
system.cpu3.numWorkItemsCompleted                   0                       # number of work items this cpu completed
system.cpu3.committedInsts                   14517670                       # Number of instructions committed
system.cpu3.committedOps                     29033763                       # Number of ops (including micro ops) committed
system.cpu3.num_int_alu_accesses             21791563                       # Number of integer alu accesses
system.cpu3.num_fp_alu_accesses              14221533                       # Number of float alu accesses
system.cpu3.num_func_calls                      40491                       # number of times a function call or return occured
system.cpu3.num_conditional_control_insts      1783388                       # number of instructions that are conditional controls
system.cpu3.num_int_insts                    21791563                       # number of integer instructions
system.cpu3.num_fp_insts                     14221533                       # number of float instructions
system.cpu3.num_int_register_reads           38295446                       # number of times the integer registers were read
system.cpu3.num_int_register_writes          13006901                       # number of times the integer registers were written
system.cpu3.num_fp_register_reads            21544607                       # number of times the floating registers were read
system.cpu3.num_fp_register_writes           14201308                       # number of times the floating registers were written
system.cpu3.num_cc_register_reads            10720595                       # number of times the CC registers were read
system.cpu3.num_cc_register_writes           10714264                       # number of times the CC registers were written
system.cpu3.num_mem_refs                      7083855                       # number of memory refs
system.cpu3.num_load_insts                    7043298                       # Number of load instructions
system.cpu3.num_store_insts                     40557                       # Number of store instructions
system.cpu3.num_idle_cycles              5988188536.005494                       # Number of idle cycles
system.cpu3.num_busy_cycles              66770132.994506                       # Number of busy cycles
system.cpu3.not_idle_fraction                0.011027                       # Percentage of non-idle cycles
system.cpu3.idle_fraction                    0.988973                       # Percentage of idle cycles
system.cpu3.Branches                          1845679                       # Number of branches fetched
system.cpu3.op_class::No_OpClass                    2      0.00%      0.00% # Class of executed instruction
system.cpu3.op_class::IntAlu                 14647022     50.45%     50.45% # Class of executed instruction
system.cpu3.op_class::IntMult                   60671      0.21%     50.66% # Class of executed instruction
system.cpu3.op_class::IntDiv                       14      0.00%     50.66% # Class of executed instruction
system.cpu3.op_class::FloatAdd                7242199     24.94%     75.60% # Class of executed instruction
system.cpu3.op_class::FloatCmp                      0      0.00%     75.60% # Class of executed instruction
system.cpu3.op_class::FloatCvt                      0      0.00%     75.60% # Class of executed instruction
system.cpu3.op_class::FloatMult                     0      0.00%     75.60% # Class of executed instruction
system.cpu3.op_class::FloatDiv                      0      0.00%     75.60% # Class of executed instruction
system.cpu3.op_class::FloatSqrt                     0      0.00%     75.60% # Class of executed instruction
system.cpu3.op_class::SimdAdd                       0      0.00%     75.60% # Class of executed instruction
system.cpu3.op_class::SimdAddAcc                    0      0.00%     75.60% # Class of executed instruction
system.cpu3.op_class::SimdAlu                       0      0.00%     75.60% # Class of executed instruction
system.cpu3.op_class::SimdCmp                       0      0.00%     75.60% # Class of executed instruction
system.cpu3.op_class::SimdCvt                       0      0.00%     75.60% # Class of executed instruction
system.cpu3.op_class::SimdMisc                      0      0.00%     75.60% # Class of executed instruction
system.cpu3.op_class::SimdMult                      0      0.00%     75.60% # Class of executed instruction
system.cpu3.op_class::SimdMultAcc                   0      0.00%     75.60% # Class of executed instruction
system.cpu3.op_class::SimdShift                     0      0.00%     75.60% # Class of executed instruction
system.cpu3.op_class::SimdShiftAcc                  0      0.00%     75.60% # Class of executed instruction
system.cpu3.op_class::SimdSqrt                      0      0.00%     75.60% # Class of executed instruction
system.cpu3.op_class::SimdFloatAdd                  0      0.00%     75.60% # Class of executed instruction
system.cpu3.op_class::SimdFloatAlu                  0      0.00%     75.60% # Class of executed instruction
system.cpu3.op_class::SimdFloatCmp                  0      0.00%     75.60% # Class of executed instruction
system.cpu3.op_class::SimdFloatCvt                  0      0.00%     75.60% # Class of executed instruction
system.cpu3.op_class::SimdFloatDiv                  0      0.00%     75.60% # Class of executed instruction
system.cpu3.op_class::SimdFloatMisc                 0      0.00%     75.60% # Class of executed instruction
system.cpu3.op_class::SimdFloatMult                 0      0.00%     75.60% # Class of executed instruction
system.cpu3.op_class::SimdFloatMultAcc              0      0.00%     75.60% # Class of executed instruction
system.cpu3.op_class::SimdFloatSqrt                 0      0.00%     75.60% # Class of executed instruction
system.cpu3.op_class::MemRead                 7043298     24.26%     99.86% # Class of executed instruction
system.cpu3.op_class::MemWrite                  40557      0.14%    100.00% # Class of executed instruction
system.cpu3.op_class::IprAccess                     0      0.00%    100.00% # Class of executed instruction
system.cpu3.op_class::InstPrefetch                  0      0.00%    100.00% # Class of executed instruction
system.cpu3.op_class::total                  29033763                       # Class of executed instruction
system.cpu4.apic_clk_domain.clock                8000                       # Clock period in ticks
system.cpu4.numCycles                      6056744529                       # number of cpu cycles simulated
system.cpu4.numWorkItemsStarted                     0                       # number of work items this cpu started
system.cpu4.numWorkItemsCompleted                   0                       # number of work items this cpu completed
system.cpu4.committedInsts                   14517670                       # Number of instructions committed
system.cpu4.committedOps                     29033763                       # Number of ops (including micro ops) committed
system.cpu4.num_int_alu_accesses             21791563                       # Number of integer alu accesses
system.cpu4.num_fp_alu_accesses              14221533                       # Number of float alu accesses
system.cpu4.num_func_calls                      40491                       # number of times a function call or return occured
system.cpu4.num_conditional_control_insts      1783388                       # number of instructions that are conditional controls
system.cpu4.num_int_insts                    21791563                       # number of integer instructions
system.cpu4.num_fp_insts                     14221533                       # number of float instructions
system.cpu4.num_int_register_reads           38295446                       # number of times the integer registers were read
system.cpu4.num_int_register_writes          13006901                       # number of times the integer registers were written
system.cpu4.num_fp_register_reads            21544607                       # number of times the floating registers were read
system.cpu4.num_fp_register_writes           14201308                       # number of times the floating registers were written
system.cpu4.num_cc_register_reads            10720595                       # number of times the CC registers were read
system.cpu4.num_cc_register_writes           10714264                       # number of times the CC registers were written
system.cpu4.num_mem_refs                      7083855                       # number of memory refs
system.cpu4.num_load_insts                    7043298                       # Number of load instructions
system.cpu4.num_store_insts                     40557                       # Number of store instructions
system.cpu4.num_idle_cycles              5988169714.426908                       # Number of idle cycles
system.cpu4.num_busy_cycles              68574814.573091                       # Number of busy cycles
system.cpu4.not_idle_fraction                0.011322                       # Percentage of non-idle cycles
system.cpu4.idle_fraction                    0.988678                       # Percentage of idle cycles
system.cpu4.Branches                          1845679                       # Number of branches fetched
system.cpu4.op_class::No_OpClass                    2      0.00%      0.00% # Class of executed instruction
system.cpu4.op_class::IntAlu                 14647022     50.45%     50.45% # Class of executed instruction
system.cpu4.op_class::IntMult                   60671      0.21%     50.66% # Class of executed instruction
system.cpu4.op_class::IntDiv                       14      0.00%     50.66% # Class of executed instruction
system.cpu4.op_class::FloatAdd                7242199     24.94%     75.60% # Class of executed instruction
system.cpu4.op_class::FloatCmp                      0      0.00%     75.60% # Class of executed instruction
system.cpu4.op_class::FloatCvt                      0      0.00%     75.60% # Class of executed instruction
system.cpu4.op_class::FloatMult                     0      0.00%     75.60% # Class of executed instruction
system.cpu4.op_class::FloatDiv                      0      0.00%     75.60% # Class of executed instruction
system.cpu4.op_class::FloatSqrt                     0      0.00%     75.60% # Class of executed instruction
system.cpu4.op_class::SimdAdd                       0      0.00%     75.60% # Class of executed instruction
system.cpu4.op_class::SimdAddAcc                    0      0.00%     75.60% # Class of executed instruction
system.cpu4.op_class::SimdAlu                       0      0.00%     75.60% # Class of executed instruction
system.cpu4.op_class::SimdCmp                       0      0.00%     75.60% # Class of executed instruction
system.cpu4.op_class::SimdCvt                       0      0.00%     75.60% # Class of executed instruction
system.cpu4.op_class::SimdMisc                      0      0.00%     75.60% # Class of executed instruction
system.cpu4.op_class::SimdMult                      0      0.00%     75.60% # Class of executed instruction
system.cpu4.op_class::SimdMultAcc                   0      0.00%     75.60% # Class of executed instruction
system.cpu4.op_class::SimdShift                     0      0.00%     75.60% # Class of executed instruction
system.cpu4.op_class::SimdShiftAcc                  0      0.00%     75.60% # Class of executed instruction
system.cpu4.op_class::SimdSqrt                      0      0.00%     75.60% # Class of executed instruction
system.cpu4.op_class::SimdFloatAdd                  0      0.00%     75.60% # Class of executed instruction
system.cpu4.op_class::SimdFloatAlu                  0      0.00%     75.60% # Class of executed instruction
system.cpu4.op_class::SimdFloatCmp                  0      0.00%     75.60% # Class of executed instruction
system.cpu4.op_class::SimdFloatCvt                  0      0.00%     75.60% # Class of executed instruction
system.cpu4.op_class::SimdFloatDiv                  0      0.00%     75.60% # Class of executed instruction
system.cpu4.op_class::SimdFloatMisc                 0      0.00%     75.60% # Class of executed instruction
system.cpu4.op_class::SimdFloatMult                 0      0.00%     75.60% # Class of executed instruction
system.cpu4.op_class::SimdFloatMultAcc              0      0.00%     75.60% # Class of executed instruction
system.cpu4.op_class::SimdFloatSqrt                 0      0.00%     75.60% # Class of executed instruction
system.cpu4.op_class::MemRead                 7043298     24.26%     99.86% # Class of executed instruction
system.cpu4.op_class::MemWrite                  40557      0.14%    100.00% # Class of executed instruction
system.cpu4.op_class::IprAccess                     0      0.00%    100.00% # Class of executed instruction
system.cpu4.op_class::InstPrefetch                  0      0.00%    100.00% # Class of executed instruction
system.cpu4.op_class::total                  29033763                       # Class of executed instruction
system.cpu5.apic_clk_domain.clock                8000                       # Clock period in ticks
system.cpu5.numCycles                      6056479025                       # number of cpu cycles simulated
system.cpu5.numWorkItemsStarted                     0                       # number of work items this cpu started
system.cpu5.numWorkItemsCompleted                   0                       # number of work items this cpu completed
system.cpu5.committedInsts                   14517670                       # Number of instructions committed
system.cpu5.committedOps                     29033763                       # Number of ops (including micro ops) committed
system.cpu5.num_int_alu_accesses             21791563                       # Number of integer alu accesses
system.cpu5.num_fp_alu_accesses              14221533                       # Number of float alu accesses
system.cpu5.num_func_calls                      40491                       # number of times a function call or return occured
system.cpu5.num_conditional_control_insts      1783388                       # number of instructions that are conditional controls
system.cpu5.num_int_insts                    21791563                       # number of integer instructions
system.cpu5.num_fp_insts                     14221533                       # number of float instructions
system.cpu5.num_int_register_reads           38295446                       # number of times the integer registers were read
system.cpu5.num_int_register_writes          13006901                       # number of times the integer registers were written
system.cpu5.num_fp_register_reads            21544607                       # number of times the floating registers were read
system.cpu5.num_fp_register_writes           14201308                       # number of times the floating registers were written
system.cpu5.num_cc_register_reads            10720595                       # number of times the CC registers were read
system.cpu5.num_cc_register_writes           10714264                       # number of times the CC registers were written
system.cpu5.num_mem_refs                      7083855                       # number of memory refs
system.cpu5.num_load_insts                    7043298                       # Number of load instructions
system.cpu5.num_store_insts                     40557                       # Number of store instructions
system.cpu5.num_idle_cycles              5988173377.002233                       # Number of idle cycles
system.cpu5.num_busy_cycles              68305647.997768                       # Number of busy cycles
system.cpu5.not_idle_fraction                0.011278                       # Percentage of non-idle cycles
system.cpu5.idle_fraction                    0.988722                       # Percentage of idle cycles
system.cpu5.Branches                          1845679                       # Number of branches fetched
system.cpu5.op_class::No_OpClass                    2      0.00%      0.00% # Class of executed instruction
system.cpu5.op_class::IntAlu                 14647022     50.45%     50.45% # Class of executed instruction
system.cpu5.op_class::IntMult                   60671      0.21%     50.66% # Class of executed instruction
system.cpu5.op_class::IntDiv                       14      0.00%     50.66% # Class of executed instruction
system.cpu5.op_class::FloatAdd                7242199     24.94%     75.60% # Class of executed instruction
system.cpu5.op_class::FloatCmp                      0      0.00%     75.60% # Class of executed instruction
system.cpu5.op_class::FloatCvt                      0      0.00%     75.60% # Class of executed instruction
system.cpu5.op_class::FloatMult                     0      0.00%     75.60% # Class of executed instruction
system.cpu5.op_class::FloatDiv                      0      0.00%     75.60% # Class of executed instruction
system.cpu5.op_class::FloatSqrt                     0      0.00%     75.60% # Class of executed instruction
system.cpu5.op_class::SimdAdd                       0      0.00%     75.60% # Class of executed instruction
system.cpu5.op_class::SimdAddAcc                    0      0.00%     75.60% # Class of executed instruction
system.cpu5.op_class::SimdAlu                       0      0.00%     75.60% # Class of executed instruction
system.cpu5.op_class::SimdCmp                       0      0.00%     75.60% # Class of executed instruction
system.cpu5.op_class::SimdCvt                       0      0.00%     75.60% # Class of executed instruction
system.cpu5.op_class::SimdMisc                      0      0.00%     75.60% # Class of executed instruction
system.cpu5.op_class::SimdMult                      0      0.00%     75.60% # Class of executed instruction
system.cpu5.op_class::SimdMultAcc                   0      0.00%     75.60% # Class of executed instruction
system.cpu5.op_class::SimdShift                     0      0.00%     75.60% # Class of executed instruction
system.cpu5.op_class::SimdShiftAcc                  0      0.00%     75.60% # Class of executed instruction
system.cpu5.op_class::SimdSqrt                      0      0.00%     75.60% # Class of executed instruction
system.cpu5.op_class::SimdFloatAdd                  0      0.00%     75.60% # Class of executed instruction
system.cpu5.op_class::SimdFloatAlu                  0      0.00%     75.60% # Class of executed instruction
system.cpu5.op_class::SimdFloatCmp                  0      0.00%     75.60% # Class of executed instruction
system.cpu5.op_class::SimdFloatCvt                  0      0.00%     75.60% # Class of executed instruction
system.cpu5.op_class::SimdFloatDiv                  0      0.00%     75.60% # Class of executed instruction
system.cpu5.op_class::SimdFloatMisc                 0      0.00%     75.60% # Class of executed instruction
system.cpu5.op_class::SimdFloatMult                 0      0.00%     75.60% # Class of executed instruction
system.cpu5.op_class::SimdFloatMultAcc              0      0.00%     75.60% # Class of executed instruction
system.cpu5.op_class::SimdFloatSqrt                 0      0.00%     75.60% # Class of executed instruction
system.cpu5.op_class::MemRead                 7043298     24.26%     99.86% # Class of executed instruction
system.cpu5.op_class::MemWrite                  40557      0.14%    100.00% # Class of executed instruction
system.cpu5.op_class::IprAccess                     0      0.00%    100.00% # Class of executed instruction
system.cpu5.op_class::InstPrefetch                  0      0.00%    100.00% # Class of executed instruction
system.cpu5.op_class::total                  29033763                       # Class of executed instruction
system.cpu6.apic_clk_domain.clock                8000                       # Clock period in ticks
system.cpu6.numCycles                      6056199003                       # number of cpu cycles simulated
system.cpu6.numWorkItemsStarted                     0                       # number of work items this cpu started
system.cpu6.numWorkItemsCompleted                   0                       # number of work items this cpu completed
system.cpu6.committedInsts                   14517670                       # Number of instructions committed
system.cpu6.committedOps                     29033763                       # Number of ops (including micro ops) committed
system.cpu6.num_int_alu_accesses             21791563                       # Number of integer alu accesses
system.cpu6.num_fp_alu_accesses              14221533                       # Number of float alu accesses
system.cpu6.num_func_calls                      40491                       # number of times a function call or return occured
system.cpu6.num_conditional_control_insts      1783388                       # number of instructions that are conditional controls
system.cpu6.num_int_insts                    21791563                       # number of integer instructions
system.cpu6.num_fp_insts                     14221533                       # number of float instructions
system.cpu6.num_int_register_reads           38295446                       # number of times the integer registers were read
system.cpu6.num_int_register_writes          13006901                       # number of times the integer registers were written
system.cpu6.num_fp_register_reads            21544607                       # number of times the floating registers were read
system.cpu6.num_fp_register_writes           14201308                       # number of times the floating registers were written
system.cpu6.num_cc_register_reads            10720595                       # number of times the CC registers were read
system.cpu6.num_cc_register_writes           10714264                       # number of times the CC registers were written
system.cpu6.num_mem_refs                      7083855                       # number of memory refs
system.cpu6.num_load_insts                    7043298                       # Number of load instructions
system.cpu6.num_store_insts                     40557                       # Number of store instructions
system.cpu6.num_idle_cycles              5988177373.084963                       # Number of idle cycles
system.cpu6.num_busy_cycles              68021629.915037                       # Number of busy cycles
system.cpu6.not_idle_fraction                0.011232                       # Percentage of non-idle cycles
system.cpu6.idle_fraction                    0.988768                       # Percentage of idle cycles
system.cpu6.Branches                          1845679                       # Number of branches fetched
system.cpu6.op_class::No_OpClass                    2      0.00%      0.00% # Class of executed instruction
system.cpu6.op_class::IntAlu                 14647022     50.45%     50.45% # Class of executed instruction
system.cpu6.op_class::IntMult                   60671      0.21%     50.66% # Class of executed instruction
system.cpu6.op_class::IntDiv                       14      0.00%     50.66% # Class of executed instruction
system.cpu6.op_class::FloatAdd                7242199     24.94%     75.60% # Class of executed instruction
system.cpu6.op_class::FloatCmp                      0      0.00%     75.60% # Class of executed instruction
system.cpu6.op_class::FloatCvt                      0      0.00%     75.60% # Class of executed instruction
system.cpu6.op_class::FloatMult                     0      0.00%     75.60% # Class of executed instruction
system.cpu6.op_class::FloatDiv                      0      0.00%     75.60% # Class of executed instruction
system.cpu6.op_class::FloatSqrt                     0      0.00%     75.60% # Class of executed instruction
system.cpu6.op_class::SimdAdd                       0      0.00%     75.60% # Class of executed instruction
system.cpu6.op_class::SimdAddAcc                    0      0.00%     75.60% # Class of executed instruction
system.cpu6.op_class::SimdAlu                       0      0.00%     75.60% # Class of executed instruction
system.cpu6.op_class::SimdCmp                       0      0.00%     75.60% # Class of executed instruction
system.cpu6.op_class::SimdCvt                       0      0.00%     75.60% # Class of executed instruction
system.cpu6.op_class::SimdMisc                      0      0.00%     75.60% # Class of executed instruction
system.cpu6.op_class::SimdMult                      0      0.00%     75.60% # Class of executed instruction
system.cpu6.op_class::SimdMultAcc                   0      0.00%     75.60% # Class of executed instruction
system.cpu6.op_class::SimdShift                     0      0.00%     75.60% # Class of executed instruction
system.cpu6.op_class::SimdShiftAcc                  0      0.00%     75.60% # Class of executed instruction
system.cpu6.op_class::SimdSqrt                      0      0.00%     75.60% # Class of executed instruction
system.cpu6.op_class::SimdFloatAdd                  0      0.00%     75.60% # Class of executed instruction
system.cpu6.op_class::SimdFloatAlu                  0      0.00%     75.60% # Class of executed instruction
system.cpu6.op_class::SimdFloatCmp                  0      0.00%     75.60% # Class of executed instruction
system.cpu6.op_class::SimdFloatCvt                  0      0.00%     75.60% # Class of executed instruction
system.cpu6.op_class::SimdFloatDiv                  0      0.00%     75.60% # Class of executed instruction
system.cpu6.op_class::SimdFloatMisc                 0      0.00%     75.60% # Class of executed instruction
system.cpu6.op_class::SimdFloatMult                 0      0.00%     75.60% # Class of executed instruction
system.cpu6.op_class::SimdFloatMultAcc              0      0.00%     75.60% # Class of executed instruction
system.cpu6.op_class::SimdFloatSqrt                 0      0.00%     75.60% # Class of executed instruction
system.cpu6.op_class::MemRead                 7043298     24.26%     99.86% # Class of executed instruction
system.cpu6.op_class::MemWrite                  40557      0.14%    100.00% # Class of executed instruction
system.cpu6.op_class::IprAccess                     0      0.00%    100.00% # Class of executed instruction
system.cpu6.op_class::InstPrefetch                  0      0.00%    100.00% # Class of executed instruction
system.cpu6.op_class::total                  29033763                       # Class of executed instruction
system.cpu7.apic_clk_domain.clock                8000                       # Clock period in ticks
system.cpu7.numCycles                      6054804516                       # number of cpu cycles simulated
system.cpu7.numWorkItemsStarted                     0                       # number of work items this cpu started
system.cpu7.numWorkItemsCompleted                   0                       # number of work items this cpu completed
system.cpu7.committedInsts                   14517670                       # Number of instructions committed
system.cpu7.committedOps                     29033763                       # Number of ops (including micro ops) committed
[...]
system.ruby.L1Cache_Controller.EE.Fwd_GETS::total        34662                      
system.ruby.L1Cache_Controller.M.WriteBack |     2287169     87.70%     87.70% |       40391      1.55%     89.25% |       37015      1.42%     90.67% |       41717      1.60%     92.27% |       40028      1.53%     93.80% |       39979      1.53%     95.34% |       41297      1.58%     96.92% |       40774      1.56%     98.48% |       39576      1.52%    100.00%
system.ruby.L1Cache_Controller.M.WriteBack::total      2607946                      
system.ruby.L1Cache_Controller.M.L0_Invalidate_Own |        1740     68.42%     68.42% |         107      4.21%     72.63% |          53      2.08%     74.71% |         119      4.68%     79.39% |          58      2.28%     81.68% |          34      1.34%     83.01% |          91      3.58%     86.59% |         225      8.85%     95.44% |         116      4.56%    100.00%
system.ruby.L1Cache_Controller.M.L0_Invalidate_Own::total         2543                      
system.ruby.L1Cache_Controller.M.L0_Invalidate_Else |         336     50.91%     50.91% |          37      5.61%     56.52% |          15      2.27%     58.79% |          55      8.33%     67.12% |          37      5.61%     72.73% |          22      3.33%     76.06% |          61      9.24%     85.30% |          44      6.67%     91.97% |          53      8.03%    100.00%
system.ruby.L1Cache_Controller.M.L0_Invalidate_Else::total          660                      
system.ruby.L1Cache_Controller.MM.Load   |         254      0.08%      0.08% |       39275     12.58%     12.67% |       35826     11.48%     24.14% |       40627     13.02%     37.16% |       38869     12.45%     49.62% |       38777     12.42%     62.04% |       40196     12.88%     74.92% |       39785     12.75%     87.67% |       38488     12.33%    100.00%
system.ruby.L1Cache_Controller.MM.Load::total       312097                      
system.ruby.L1Cache_Controller.MM.Store  |          56    100.00%    100.00% |           0      0.00%    100.00% |           0      0.00%    100.00% |           0      0.00%    100.00% |           0      0.00%    100.00% |           0      0.00%    100.00% |           0      0.00%    100.00% |           0      0.00%    100.00% |           0      0.00%    100.00%
system.ruby.L1Cache_Controller.MM.Store::total           56                      
system.ruby.L1Cache_Controller.MM.Inv    |           1      0.00%      0.00% |        3707      8.39%      8.40% |        4715     10.68%     19.07% |        6581     14.90%     33.98% |       10414     23.58%     57.56% |        3578      8.10%     65.66% |        8192     18.55%     84.21% |        2892      6.55%     90.76% |        4081      9.24%    100.00%
system.ruby.L1Cache_Controller.MM.Inv::total        44161                      
system.ruby.L1Cache_Controller.MM.L1_Replacement |     2288063     50.61%     50.61% |      266660      5.90%     56.51% |      326482      7.22%     63.73% |      263316      5.82%     69.56% |      259281      5.74%     75.29% |      266339      5.89%     81.19% |      260719      5.77%     86.95% |      267799      5.92%     92.88% |      321992      7.12%    100.00%
system.ruby.L1Cache_Controller.MM.L1_Replacement::total      4520651                      
system.ruby.L1Cache_Controller.MM.Fwd_GETX |           1      3.85%      3.85% |           4     15.38%     19.23% |           3     11.54%     30.77% |           3     11.54%     42.31% |           3     11.54%     53.85% |           4     15.38%     69.23% |           3     11.54%     80.77% |           3     11.54%     92.31% |           2      7.69%    100.00%
system.ruby.L1Cache_Controller.MM.Fwd_GETX::total           26                      
system.ruby.L1Cache_Controller.MM.Fwd_GETS |        3659      3.86%      3.86% |       39853     42.08%     45.94% |       47807     50.47%     96.41% |           6      0.01%     96.42% |           5      0.01%     96.42% |           8      0.01%     96.43% |         532      0.56%     96.99% |         656      0.69%     97.69% |        2192      2.31%    100.00%
system.ruby.L1Cache_Controller.MM.Fwd_GETS::total        94718                      
system.ruby.L1Cache_Controller.IS.Data_Exclusive |       11561      0.47%      0.47% |      327077     13.38%     13.85% |      406051     16.61%     30.47% |      272687     11.16%     41.62% |      272773     11.16%     52.78% |      272982     11.17%     63.95% |      272419     11.15%     75.10% |      274060     11.21%     86.31% |      334571     13.69%    100.00%
system.ruby.L1Cache_Controller.IS.Data_Exclusive::total      2444181                      
system.ruby.L1Cache_Controller.IS.DataS_fromL1 |          75      0.06%      0.06% |       13258     10.25%     10.31% |        4371      3.38%     13.68% |         655      0.51%     14.19% |           3      0.00%     14.19% |         532      0.41%     14.60% |           2      0.00%     14.61% |       54350     42.01%     56.61% |       56134     43.39%    100.00%
system.ruby.L1Cache_Controller.IS.DataS_fromL1::total       129380                      
system.ruby.L1Cache_Controller.IS.Data_all_Acks |          18      0.00%      0.00% |       70590      9.67%      9.67% |        3943      0.54%     10.21% |      137498     18.84%     29.05% |      138142     18.93%     47.98% |      137612     18.85%     66.83% |      137609     18.85%     85.69% |       83205     11.40%     97.09% |       21276      2.91%    100.00%
system.ruby.L1Cache_Controller.IS.Data_all_Acks::total       729893                      
system.ruby.L1Cache_Controller.IM.Data   |           1     14.29%     14.29% |           1     14.29%     28.57% |           1     14.29%     42.86% |           0      0.00%     42.86% |           1     14.29%     57.14% |           0      0.00%     57.14% |           1     14.29%     71.43% |           1     14.29%     85.71% |           1     14.29%    100.00%
system.ruby.L1Cache_Controller.IM.Data::total            7                      
system.ruby.L1Cache_Controller.IM.Data_all_Acks |     2289130     99.55%     99.55% |        1288      0.06%     99.61% |        1286      0.06%     99.66% |        1294      0.06%     99.72% |        1284      0.06%     99.78% |        1287      0.06%     99.83% |        1282      0.06%     99.89% |        1287      0.06%     99.94% |        1287      0.06%    100.00%
system.ruby.L1Cache_Controller.IM.Data_all_Acks::total      2299425                      
system.ruby.L1Cache_Controller.SM.Ack    |         153     95.03%     95.03% |           1      0.62%     95.65% |           1      0.62%     96.27% |           1      0.62%     96.89% |           1      0.62%     97.52% |           1      0.62%     98.14% |           1      0.62%     98.76% |           1      0.62%     99.38% |           1      0.62%    100.00%
system.ruby.L1Cache_Controller.SM.Ack::total          161                      
system.ruby.L1Cache_Controller.SM.Ack_all |          81     85.26%     85.26% |           2      2.11%     87.37% |           2      2.11%     89.47% |           1      1.05%     90.53% |           2      2.11%     92.63% |           1      1.05%     93.68% |           2      2.11%     95.79% |           2      2.11%     97.89% |           2      2.11%    100.00%
system.ruby.L1Cache_Controller.SM.Ack_all::total           95                      
system.ruby.L1Cache_Controller.M_I.WB_Ack |     2295783     50.28%     50.28% |      270722      5.93%     56.21% |      335177      7.34%     63.55% |      267057      5.85%     69.40% |      263179      5.76%     75.17% |      270342      5.92%     81.09% |      264658      5.80%     86.88% |      271601      5.95%     92.83% |      327210      7.17%    100.00%
system.ruby.L1Cache_Controller.M_I.WB_Ack::total      4565729                      
system.ruby.L1Cache_Controller.S_IL0.L0_Invalidate_Own |           8      0.00%      0.00% |       80151      9.67%      9.67% |        5606      0.68%     10.34% |      134229     16.19%     26.54% |      133223     16.07%     42.60% |      133820     16.14%     58.74% |      133685     16.12%     74.87% |      133522     16.11%     90.97% |       74826      9.03%    100.00%
system.ruby.L1Cache_Controller.S_IL0.L0_Invalidate_Own::total       829070                      
system.ruby.L1Cache_Controller.S_IL0.L0_Invalidate_Else |           2      0.13%      0.13% |          16      1.07%      1.21% |           6      0.40%      1.61% |           9      0.60%      2.21% |         992     66.49%     68.70% |         408     27.35%     96.05% |          10      0.67%     96.72% |           8      0.54%     97.25% |          41      2.75%    100.00%
system.ruby.L1Cache_Controller.S_IL0.L0_Invalidate_Else::total         1492                      
system.ruby.L1Cache_Controller.S_IL0.L0_Ack |          10      0.00%      0.00% |       80167      9.65%      9.65% |        5612      0.68%     10.33% |      134238     16.16%     26.49% |      134215     16.16%     42.65% |      134228     16.16%     58.81% |      133695     16.10%     74.91% |      133530     16.08%     90.99% |       74867      9.01%    100.00%
system.ruby.L1Cache_Controller.S_IL0.L0_Ack::total       830562                      
system.ruby.L1Cache_Controller.E_IL0.WriteBack |           0      0.00%      0.00% |           0      0.00%      0.00% |           5    100.00%    100.00% |           0      0.00%    100.00% |           0      0.00%    100.00% |           0      0.00%    100.00% |           0      0.00%    100.00% |           0      0.00%    100.00% |           0      0.00%    100.00%
system.ruby.L1Cache_Controller.E_IL0.WriteBack::total            5                      
system.ruby.L1Cache_Controller.E_IL0.L0_DataAck |        1677     66.65%     66.65% |         107      4.25%     70.91% |         102      4.05%     74.96% |          97      3.86%     78.82% |         111      4.41%     83.23% |         101      4.01%     87.24% |         104      4.13%     91.38% |         110      4.37%     95.75% |         107      4.25%    100.00%
system.ruby.L1Cache_Controller.E_IL0.L0_DataAck::total         2516                      
system.ruby.L1Cache_Controller.E_IL0.L0_Invalidate_Own |        9397     19.75%     19.75% |        4167      8.76%     28.51% |        8796     18.49%     46.99% |        3837      8.06%     55.05% |        4008      8.42%     63.48% |        4102      8.62%     72.10% |        4042      8.49%     80.59% |        3911      8.22%     88.81% |        5324     11.19%    100.00%
system.ruby.L1Cache_Controller.E_IL0.L0_Invalidate_Own::total        47584                      
system.ruby.L1Cache_Controller.E_IL0.L0_Invalidate_Else |          22      0.06%      0.06% |       13932     38.05%     38.11% |       19489     53.22%     91.33% |         171      0.47%     91.80% |         310      0.85%     92.64% |         178      0.49%     93.13% |         155      0.42%     93.55% |         147      0.40%     93.95% |        2214      6.05%    100.00%
system.ruby.L1Cache_Controller.E_IL0.L0_Invalidate_Else::total        36618                      
system.ruby.L1Cache_Controller.E_IL0.L0_Ack |        7742      9.48%      9.48% |       17992     22.03%     31.51% |       28178     34.50%     66.00% |        3911      4.79%     70.79% |        4207      5.15%     75.94% |        4179      5.12%     81.06% |        4093      5.01%     86.07% |        3948      4.83%     90.90% |        7431      9.10%    100.00%
system.ruby.L1Cache_Controller.E_IL0.L0_Ack::total        81681                      
system.ruby.L1Cache_Controller.M_IL0.L0_DataAck |        2028     93.11%     93.11% |          24      1.10%     94.21% |          19      0.87%     95.09% |          22      1.01%     96.10% |          13      0.60%     96.69% |          19      0.87%     97.57% |          13      0.60%     98.16% |          16      0.73%     98.90% |          24      1.10%    100.00%
system.ruby.L1Cache_Controller.M_IL0.L0_DataAck::total         2178                      
system.ruby.L1Cache_Controller.M_IL0.L0_Invalidate_Own |        1740     68.42%     68.42% |         107      4.21%     72.63% |          53      2.08%     74.71% |         119      4.68%     79.39% |          58      2.28%     81.68% |          34      1.34%     83.01% |          91      3.58%     86.59% |         225      8.85%     95.44% |         116      4.56%    100.00%
system.ruby.L1Cache_Controller.M_IL0.L0_Invalidate_Own::total         2543                      
system.ruby.L1Cache_Controller.M_IL0.L0_Invalidate_Else |         336     50.91%     50.91% |          37      5.61%     56.52% |          15      2.27%     58.79% |          55      8.33%     67.12% |          37      5.61%     72.73% |          22      3.33%     76.06% |          61      9.24%     85.30% |          44      6.67%     91.97% |          53      8.03%    100.00%
system.ruby.L1Cache_Controller.M_IL0.L0_Invalidate_Else::total          660                      
system.ruby.L1Cache_Controller.M_IL0.L0_Ack |          48      4.68%      4.68% |         120     11.71%     16.39% |          49      4.78%     21.17% |         152     14.83%     36.00% |          82      8.00%     44.00% |          37      3.61%     47.61% |         139     13.56%     61.17% |         253     24.68%     85.85% |         145     14.15%    100.00%
system.ruby.L1Cache_Controller.M_IL0.L0_Ack::total         1025                      
system.ruby.L1Cache_Controller.MM_IL0.Inv |           0      0.00%      0.00% |           0      0.00%      0.00% |           1    100.00%    100.00% |           0      0.00%    100.00% |           0      0.00%    100.00% |           0      0.00%    100.00% |           0      0.00%    100.00% |           0      0.00%    100.00% |           0      0.00%    100.00%
system.ruby.L1Cache_Controller.MM_IL0.Inv::total            1                      
system.ruby.L1Cache_Controller.MM_IL0.Fwd_GETS |           0      0.00%      0.00% |           0      0.00%      0.00% |           4    100.00%    100.00% |           0      0.00%    100.00% |           0      0.00%    100.00% |           0      0.00%    100.00% |           0      0.00%    100.00% |           0      0.00%    100.00% |           0      0.00%    100.00%
system.ruby.L1Cache_Controller.MM_IL0.Fwd_GETS::total            4                      
system.ruby.L1Cache_Controller.MM_IL0.L0_Ack |           0      0.00%      0.00% |           0      0.00%      0.00% |           5    100.00%    100.00% |           0      0.00%    100.00% |           0      0.00%    100.00% |           0      0.00%    100.00% |           0      0.00%    100.00% |           0      0.00%    100.00% |           0      0.00%    100.00%
system.ruby.L1Cache_Controller.MM_IL0.L0_Ack::total            5                      
system.ruby.L2Cache_Controller.L1_GETS        3321280      0.00%      0.00%
system.ruby.L2Cache_Controller.L1_GETX        2299437      0.00%      0.00%
system.ruby.L2Cache_Controller.L1_UPGRADE           88      0.00%      0.00%
system.ruby.L2Cache_Controller.L1_PUTX        4565729      0.00%      0.00%
system.ruby.L2Cache_Controller.L2_Replacement      1267556      0.00%      0.00%
system.ruby.L2Cache_Controller.L2_Replacement_clean       174219      0.00%      0.00%
system.ruby.L2Cache_Controller.Mem_Data       1769455      0.00%      0.00%
system.ruby.L2Cache_Controller.Mem_Ack        1441775      0.00%      0.00%
system.ruby.L2Cache_Controller.WB_Data          38969      0.00%      0.00%
system.ruby.L2Cache_Controller.WB_Data_clean       134572      0.00%      0.00%
system.ruby.L2Cache_Controller.Ack              70228      0.00%      0.00%
system.ruby.L2Cache_Controller.Ack_all          15681      0.00%      0.00%
system.ruby.L2Cache_Controller.Unblock         129380      0.00%      0.00%
system.ruby.L2Cache_Controller.Exclusive_Unblock      4743701      0.00%      0.00%
system.ruby.L2Cache_Controller.NP.L1_GETS       307205      0.00%      0.00%
system.ruby.L2Cache_Controller.NP.L1_GETX      1462250      0.00%      0.00%
system.ruby.L2Cache_Controller.SS.L1_GETS       722103      0.00%      0.00%
system.ruby.L2Cache_Controller.SS.L1_GETX            7      0.00%      0.00%
system.ruby.L2Cache_Controller.SS.L1_UPGRADE           88      0.00%      0.00%
system.ruby.L2Cache_Controller.SS.L2_Replacement         2320      0.00%      0.00%
system.ruby.L2Cache_Controller.SS.L2_Replacement_clean        11444      0.00%      0.00%
system.ruby.L2Cache_Controller.M.L1_GETS      2140861      0.00%      0.00%
system.ruby.L2Cache_Controller.M.L1_GETX       837146      0.00%      0.00%
system.ruby.L2Cache_Controller.M.L2_Replacement      1264517      0.00%      0.00%
system.ruby.L2Cache_Controller.M.L2_Replacement_clean       117416      0.00%      0.00%
system.ruby.L2Cache_Controller.MT.L1_GETS       129380      0.00%      0.00%
system.ruby.L2Cache_Controller.MT.L1_GETX           29      0.00%      0.00%
system.ruby.L2Cache_Controller.MT.L1_PUTX      4565729      0.00%      0.00%
system.ruby.L2Cache_Controller.MT.L2_Replacement          719      0.00%      0.00%
system.ruby.L2Cache_Controller.MT.L2_Replacement_clean        45359      0.00%      0.00%
system.ruby.L2Cache_Controller.M_I.Mem_Ack      1441775      0.00%      0.00%
system.ruby.L2Cache_Controller.MT_I.WB_Data            9      0.00%      0.00%
system.ruby.L2Cache_Controller.MT_I.WB_Data_clean           83      0.00%      0.00%
system.ruby.L2Cache_Controller.MT_I.Ack_all          627      0.00%      0.00%
system.ruby.L2Cache_Controller.MCT_I.WB_Data          599      0.00%      0.00%
system.ruby.L2Cache_Controller.MCT_I.WB_Data_clean        43470      0.00%      0.00%
system.ruby.L2Cache_Controller.MCT_I.Ack_all         1290      0.00%      0.00%
system.ruby.L2Cache_Controller.I_I.Ack          59394      0.00%      0.00%
system.ruby.L2Cache_Controller.I_I.Ack_all        11444      0.00%      0.00%
system.ruby.L2Cache_Controller.S_I.Ack          10834      0.00%      0.00%
system.ruby.L2Cache_Controller.S_I.Ack_all         2320      0.00%      0.00%
system.ruby.L2Cache_Controller.ISS.L1_GETS         3885      0.00%      0.00%
system.ruby.L2Cache_Controller.ISS.Mem_Data       303320      0.00%      0.00%
system.ruby.L2Cache_Controller.IS.L1_GETS           20      0.00%      0.00%
system.ruby.L2Cache_Controller.IS.Mem_Data         3885      0.00%      0.00%
system.ruby.L2Cache_Controller.IM.L1_GETX            2      0.00%      0.00%
system.ruby.L2Cache_Controller.IM.Mem_Data      1462250      0.00%      0.00%
system.ruby.L2Cache_Controller.SS_MB.L1_GETS            1      0.00%      0.00%
system.ruby.L2Cache_Controller.SS_MB.Exclusive_Unblock           95      0.00%      0.00%
system.ruby.L2Cache_Controller.MT_MB.L1_GETS          180      0.00%      0.00%
system.ruby.L2Cache_Controller.MT_MB.L1_GETX            3      0.00%      0.00%
system.ruby.L2Cache_Controller.MT_MB.Exclusive_Unblock      4743606      0.00%      0.00%
system.ruby.L2Cache_Controller.MT_IIB.L1_GETS        17641      0.00%      0.00%
system.ruby.L2Cache_Controller.MT_IIB.WB_Data        38160      0.00%      0.00%
system.ruby.L2Cache_Controller.MT_IIB.WB_Data_clean        90472      0.00%      0.00%
system.ruby.L2Cache_Controller.MT_IIB.Unblock          748      0.00%      0.00%
system.ruby.L2Cache_Controller.MT_IB.WB_Data          201      0.00%      0.00%
system.ruby.L2Cache_Controller.MT_IB.WB_Data_clean          547      0.00%      0.00%
system.ruby.L2Cache_Controller.MT_SB.L1_GETS            4      0.00%      0.00%
system.ruby.L2Cache_Controller.MT_SB.Unblock       128632      0.00%      0.00%

---------- End Simulation Statistics   ----------
