
---------- Begin Simulation Statistics ----------
sim_seconds                                  0.427216                       # Number of seconds simulated
sim_ticks                                427215552500                       # Number of ticks simulated
final_tick                               427215552500                       # Number of ticks from beginning of simulation (restored from checkpoints and never reset)
sim_freq                                 1000000000000                       # Frequency of simulated ticks
host_inst_rate                                 157067                       # Simulator instruction rate (inst/s)
host_op_rate                                   417760                       # Simulator op (including micro ops) rate (op/s)
host_tick_rate                              263463060                       # Simulator tick rate (ticks/s)
host_mem_usage                                 881976                       # Number of bytes of host memory used
host_seconds                                  1621.54                       # Real time elapsed on the host
sim_insts                                   254689914                       # Number of instructions simulated
sim_ops                                     677413479                       # Number of ops (including micro ops) simulated
system.voltage_domain.voltage                       1                       # Voltage in Volts
system.clk_domain.clock                          1000                       # Clock period in ticks
system.mem_ctrls.bytes_read::ruby.dir_cntrl0     18405952                       # Number of bytes read from this memory
system.mem_ctrls.bytes_read::total           18405952                       # Number of bytes read from this memory
system.mem_ctrls.num_reads::ruby.dir_cntrl0       287593                       # Number of read requests responded to by this memory
system.mem_ctrls.num_reads::total              287593                       # Number of read requests responded to by this memory
system.mem_ctrls.bw_read::ruby.dir_cntrl0     43083525                       # Total read bandwidth from this memory (bytes/s)
system.mem_ctrls.bw_read::total              43083525                       # Total read bandwidth from this memory (bytes/s)
system.mem_ctrls.bw_total::ruby.dir_cntrl0     43083525                       # Total bandwidth to/from this memory (bytes/s)
system.mem_ctrls.bw_total::total             43083525                       # Total bandwidth to/from this memory (bytes/s)
system.mem_ctrls.readReqs                      287593                       # Number of read requests accepted
system.mem_ctrls.writeReqs                          0                       # Number of write requests accepted
system.mem_ctrls.readBursts                    287593                       # Number of DRAM read bursts, including those serviced by the write queue
system.mem_ctrls.writeBursts                        0                       # Number of DRAM write bursts, including those merged in the write queue
system.mem_ctrls.bytesReadDRAM               18405952                       # Total number of bytes read from DRAM
system.mem_ctrls.bytesReadWrQ                       0                       # Total number of bytes read from write queue
system.mem_ctrls.bytesWritten                       0                       # Total number of bytes written to DRAM
system.mem_ctrls.bytesReadSys                18405952                       # Total read bytes from the system interface side
system.mem_ctrls.bytesWrittenSys                    0                       # Total written bytes from the system interface side
system.mem_ctrls.servicedByWrQ                      0                       # Number of DRAM read bursts serviced by the write queue
system.mem_ctrls.mergedWrBursts                     0                       # Number of DRAM write bursts merged with an existing one
system.mem_ctrls.neitherReadNorWriteReqs            0                       # Number of requests that are neither read nor write
system.mem_ctrls.perBankRdBursts::0             18021                       # Per bank write bursts
system.mem_ctrls.perBankRdBursts::1             18064                       # Per bank write bursts
system.mem_ctrls.perBankRdBursts::2             17908                       # Per bank write bursts
system.mem_ctrls.perBankRdBursts::3             17817                       # Per bank write bursts
system.mem_ctrls.perBankRdBursts::4             17960                       # Per bank write bursts
system.mem_ctrls.perBankRdBursts::5             17862                       # Per bank write bursts
system.mem_ctrls.perBankRdBursts::6             18069                       # Per bank write bursts
system.mem_ctrls.perBankRdBursts::7             17980                       # Per bank write bursts
system.mem_ctrls.perBankRdBursts::8             17887                       # Per bank write bursts
system.mem_ctrls.perBankRdBursts::9             18082                       # Per bank write bursts
system.mem_ctrls.perBankRdBursts::10            18154                       # Per bank write bursts
system.mem_ctrls.perBankRdBursts::11            18111                       # Per bank write bursts
system.mem_ctrls.perBankRdBursts::12            17882                       # Per bank write bursts
system.mem_ctrls.perBankRdBursts::13            17876                       # Per bank write bursts
system.mem_ctrls.perBankRdBursts::14            17947                       # Per bank write bursts
system.mem_ctrls.perBankRdBursts::15            17973                       # Per bank write bursts
system.mem_ctrls.perBankWrBursts::0                 0                       # Per bank write bursts
system.mem_ctrls.perBankWrBursts::1                 0                       # Per bank write bursts
system.mem_ctrls.perBankWrBursts::2                 0                       # Per bank write bursts
system.mem_ctrls.perBankWrBursts::3                 0                       # Per bank write bursts
system.mem_ctrls.perBankWrBursts::4                 0                       # Per bank write bursts
system.mem_ctrls.perBankWrBursts::5                 0                       # Per bank write bursts
system.mem_ctrls.perBankWrBursts::6                 0                       # Per bank write bursts
system.mem_ctrls.perBankWrBursts::7                 0                       # Per bank write bursts
system.mem_ctrls.perBankWrBursts::8                 0                       # Per bank write bursts
system.mem_ctrls.perBankWrBursts::9                 0                       # Per bank write bursts
system.mem_ctrls.perBankWrBursts::10                0                       # Per bank write bursts
system.mem_ctrls.perBankWrBursts::11                0                       # Per bank write bursts
system.mem_ctrls.perBankWrBursts::12                0                       # Per bank write bursts
system.mem_ctrls.perBankWrBursts::13                0                       # Per bank write bursts
system.mem_ctrls.perBankWrBursts::14                0                       # Per bank write bursts
system.mem_ctrls.perBankWrBursts::15                0                       # Per bank write bursts
system.mem_ctrls.numRdRetry                         0                       # Number of times read queue was full causing retry
system.mem_ctrls.numWrRetry                         0                       # Number of times write queue was full causing retry
system.mem_ctrls.totGap                  427215472000                       # Total gap between requests
system.mem_ctrls.readPktSize::0                     0                       # Read request sizes (log2)
system.mem_ctrls.readPktSize::1                     0                       # Read request sizes (log2)
system.mem_ctrls.readPktSize::2                     0                       # Read request sizes (log2)
system.mem_ctrls.readPktSize::3                     0                       # Read request sizes (log2)
system.mem_ctrls.readPktSize::4                     0                       # Read request sizes (log2)
system.mem_ctrls.readPktSize::5                     0                       # Read request sizes (log2)
system.mem_ctrls.readPktSize::6                287593                       # Read request sizes (log2)
system.mem_ctrls.writePktSize::0                    0                       # Write request sizes (log2)
system.mem_ctrls.writePktSize::1                    0                       # Write request sizes (log2)
system.mem_ctrls.writePktSize::2                    0                       # Write request sizes (log2)
system.mem_ctrls.writePktSize::3                    0                       # Write request sizes (log2)
system.mem_ctrls.writePktSize::4                    0                       # Write request sizes (log2)
system.mem_ctrls.writePktSize::5                    0                       # Write request sizes (log2)
system.mem_ctrls.writePktSize::6                    0                       # Write request sizes (log2)
system.mem_ctrls.rdQLenPdf::0                  287592                       # What read queue length does an incoming req see
system.mem_ctrls.rdQLenPdf::1                       1                       # What read queue length does an incoming req see
system.mem_ctrls.rdQLenPdf::2                       0                       # What read queue length does an incoming req see
system.mem_ctrls.rdQLenPdf::3                       0                       # What read queue length does an incoming req see
system.mem_ctrls.rdQLenPdf::4                       0                       # What read queue length does an incoming req see
system.mem_ctrls.rdQLenPdf::5                       0                       # What read queue length does an incoming req see
system.mem_ctrls.rdQLenPdf::6                       0                       # What read queue length does an incoming req see
system.mem_ctrls.rdQLenPdf::7                       0                       # What read queue length does an incoming req see
system.mem_ctrls.rdQLenPdf::8                       0                       # What read queue length does an incoming req see
system.mem_ctrls.rdQLenPdf::9                       0                       # What read queue length does an incoming req see
system.mem_ctrls.rdQLenPdf::10                      0                       # What read queue length does an incoming req see
system.mem_ctrls.rdQLenPdf::11                      0                       # What read queue length does an incoming req see
system.mem_ctrls.rdQLenPdf::12                      0                       # What read queue length does an incoming req see
system.mem_ctrls.rdQLenPdf::13                      0                       # What read queue length does an incoming req see
system.mem_ctrls.rdQLenPdf::14                      0                       # What read queue length does an incoming req see
system.mem_ctrls.rdQLenPdf::15                      0                       # What read queue length does an incoming req see
system.mem_ctrls.rdQLenPdf::16                      0                       # What read queue length does an incoming req see
system.mem_ctrls.rdQLenPdf::17                      0                       # What read queue length does an incoming req see
system.mem_ctrls.rdQLenPdf::18                      0                       # What read queue length does an incoming req see
system.mem_ctrls.rdQLenPdf::19                      0                       # What read queue length does an incoming req see
system.mem_ctrls.rdQLenPdf::20                      0                       # What read queue length does an incoming req see
system.mem_ctrls.rdQLenPdf::21                      0                       # What read queue length does an incoming req see
system.mem_ctrls.rdQLenPdf::22                      0                       # What read queue length does an incoming req see
system.mem_ctrls.rdQLenPdf::23                      0                       # What read queue length does an incoming req see
system.mem_ctrls.rdQLenPdf::24                      0                       # What read queue length does an incoming req see
system.mem_ctrls.rdQLenPdf::25                      0                       # What read queue length does an incoming req see
system.mem_ctrls.rdQLenPdf::26                      0                       # What read queue length does an incoming req see
system.mem_ctrls.rdQLenPdf::27                      0                       # What read queue length does an incoming req see
system.mem_ctrls.rdQLenPdf::28                      0                       # What read queue length does an incoming req see
system.mem_ctrls.rdQLenPdf::29                      0                       # What read queue length does an incoming req see
system.mem_ctrls.rdQLenPdf::30                      0                       # What read queue length does an incoming req see
system.mem_ctrls.rdQLenPdf::31                      0                       # What read queue length does an incoming req see
system.mem_ctrls.wrQLenPdf::0                       0                       # What write queue length does an incoming req see
system.mem_ctrls.wrQLenPdf::1                       0                       # What write queue length does an incoming req see
system.mem_ctrls.wrQLenPdf::2                       0                       # What write queue length does an incoming req see
system.mem_ctrls.wrQLenPdf::3                       0                       # What write queue length does an incoming req see
system.mem_ctrls.wrQLenPdf::4                       0                       # What write queue length does an incoming req see
system.mem_ctrls.wrQLenPdf::5                       0                       # What write queue length does an incoming req see
system.mem_ctrls.wrQLenPdf::6                       0                       # What write queue length does an incoming req see
system.mem_ctrls.wrQLenPdf::7                       0                       # What write queue length does an incoming req see
system.mem_ctrls.wrQLenPdf::8                       0                       # What write queue length does an incoming req see
system.mem_ctrls.wrQLenPdf::9                       0                       # What write queue length does an incoming req see
system.mem_ctrls.wrQLenPdf::10                      0                       # What write queue length does an incoming req see
system.mem_ctrls.wrQLenPdf::11                      0                       # What write queue length does an incoming req see
system.mem_ctrls.wrQLenPdf::12                      0                       # What write queue length does an incoming req see
system.mem_ctrls.wrQLenPdf::13                      0                       # What write queue length does an incoming req see
system.mem_ctrls.wrQLenPdf::14                      0                       # What write queue length does an incoming req see
system.mem_ctrls.wrQLenPdf::15                      0                       # What write queue length does an incoming req see
system.mem_ctrls.wrQLenPdf::16                      0                       # What write queue length does an incoming req see
system.mem_ctrls.wrQLenPdf::17                      0                       # What write queue length does an incoming req see
system.mem_ctrls.wrQLenPdf::18                      0                       # What write queue length does an incoming req see
system.mem_ctrls.wrQLenPdf::19                      0                       # What write queue length does an incoming req see
system.mem_ctrls.wrQLenPdf::20                      0                       # What write queue length does an incoming req see
system.mem_ctrls.wrQLenPdf::21                      0                       # What write queue length does an incoming req see
system.mem_ctrls.wrQLenPdf::22                      0                       # What write queue length does an incoming req see
system.mem_ctrls.wrQLenPdf::23                      0                       # What write queue length does an incoming req see
system.mem_ctrls.wrQLenPdf::24                      0                       # What write queue length does an incoming req see
system.mem_ctrls.wrQLenPdf::25                      0                       # What write queue length does an incoming req see
system.mem_ctrls.wrQLenPdf::26                      0                       # What write queue length does an incoming req see
system.mem_ctrls.wrQLenPdf::27                      0                       # What write queue length does an incoming req see
system.mem_ctrls.wrQLenPdf::28                      0                       # What write queue length does an incoming req see
system.mem_ctrls.wrQLenPdf::29                      0                       # What write queue length does an incoming req see
system.mem_ctrls.wrQLenPdf::30                      0                       # What write queue length does an incoming req see
system.mem_ctrls.wrQLenPdf::31                      0                       # What write queue length does an incoming req see
system.mem_ctrls.wrQLenPdf::32                      0                       # What write queue length does an incoming req see
system.mem_ctrls.wrQLenPdf::33                      0                       # What write queue length does an incoming req see
system.mem_ctrls.wrQLenPdf::34                      0                       # What write queue length does an incoming req see
system.mem_ctrls.wrQLenPdf::35                      0                       # What write queue length does an incoming req see
system.mem_ctrls.wrQLenPdf::36                      0                       # What write queue length does an incoming req see
system.mem_ctrls.wrQLenPdf::37                      0                       # What write queue length does an incoming req see
system.mem_ctrls.wrQLenPdf::38                      0                       # What write queue length does an incoming req see
system.mem_ctrls.wrQLenPdf::39                      0                       # What write queue length does an incoming req see
system.mem_ctrls.wrQLenPdf::40                      0                       # What write queue length does an incoming req see
system.mem_ctrls.wrQLenPdf::41                      0                       # What write queue length does an incoming req see
system.mem_ctrls.wrQLenPdf::42                      0                       # What write queue length does an incoming req see
system.mem_ctrls.wrQLenPdf::43                      0                       # What write queue length does an incoming req see
system.mem_ctrls.wrQLenPdf::44                      0                       # What write queue length does an incoming req see
system.mem_ctrls.wrQLenPdf::45                      0                       # What write queue length does an incoming req see
system.mem_ctrls.wrQLenPdf::46                      0                       # What write queue length does an incoming req see
system.mem_ctrls.wrQLenPdf::47                      0                       # What write queue length does an incoming req see
system.mem_ctrls.wrQLenPdf::48                      0                       # What write queue length does an incoming req see
system.mem_ctrls.wrQLenPdf::49                      0                       # What write queue length does an incoming req see
system.mem_ctrls.wrQLenPdf::50                      0                       # What write queue length does an incoming req see
system.mem_ctrls.wrQLenPdf::51                      0                       # What write queue length does an incoming req see
system.mem_ctrls.wrQLenPdf::52                      0                       # What write queue length does an incoming req see
system.mem_ctrls.wrQLenPdf::53                      0                       # What write queue length does an incoming req see
system.mem_ctrls.wrQLenPdf::54                      0                       # What write queue length does an incoming req see
system.mem_ctrls.wrQLenPdf::55                      0                       # What write queue length does an incoming req see
system.mem_ctrls.wrQLenPdf::56                      0                       # What write queue length does an incoming req see
system.mem_ctrls.wrQLenPdf::57                      0                       # What write queue length does an incoming req see
system.mem_ctrls.wrQLenPdf::58                      0                       # What write queue length does an incoming req see
system.mem_ctrls.wrQLenPdf::59                      0                       # What write queue length does an incoming req see
system.mem_ctrls.wrQLenPdf::60                      0                       # What write queue length does an incoming req see
system.mem_ctrls.wrQLenPdf::61                      0                       # What write queue length does an incoming req see
system.mem_ctrls.wrQLenPdf::62                      0                       # What write queue length does an incoming req see
system.mem_ctrls.wrQLenPdf::63                      0                       # What write queue length does an incoming req see
system.mem_ctrls.bytesPerActivate::samples        51579                       # Bytes accessed per row activation
system.mem_ctrls.bytesPerActivate::mean    356.798852                       # Bytes accessed per row activation
system.mem_ctrls.bytesPerActivate::gmean   314.356745                       # Bytes accessed per row activation
system.mem_ctrls.bytesPerActivate::stdev   203.187548                       # Bytes accessed per row activation
system.mem_ctrls.bytesPerActivate::0-127         1109      2.15%      2.15% # Bytes accessed per row activation
system.mem_ctrls.bytesPerActivate::128-255         1879      3.64%      5.79% # Bytes accessed per row activation
system.mem_ctrls.bytesPerActivate::256-383        36027     69.85%     75.64% # Bytes accessed per row activation
system.mem_ctrls.bytesPerActivate::384-511         2634      5.11%     80.75% # Bytes accessed per row activation
system.mem_ctrls.bytesPerActivate::512-639         2983      5.78%     86.53% # Bytes accessed per row activation
system.mem_ctrls.bytesPerActivate::640-767         2563      4.97%     91.50% # Bytes accessed per row activation
system.mem_ctrls.bytesPerActivate::768-895         2029      3.93%     95.43% # Bytes accessed per row activation
system.mem_ctrls.bytesPerActivate::896-1023         1372      2.66%     98.09% # Bytes accessed per row activation
system.mem_ctrls.bytesPerActivate::1024-1151          983      1.91%    100.00% # Bytes accessed per row activation
system.mem_ctrls.bytesPerActivate::total        51579                       # Bytes accessed per row activation
system.mem_ctrls.totQLat                   2609696749                       # Total ticks spent queuing
system.mem_ctrls.totMemAccLat              8002065499                       # Total ticks spent from burst creation until serviced by the DRAM
system.mem_ctrls.totBusLat                 1437965000                       # Total ticks spent in databus transfers
system.mem_ctrls.avgQLat                      9074.27                       # Average queueing delay per DRAM burst
system.mem_ctrls.avgBusLat                    5000.00                       # Average bus latency per DRAM burst
system.mem_ctrls.avgMemAccLat                27824.27                       # Average memory access latency per DRAM burst
system.mem_ctrls.avgRdBW                        43.08                       # Average DRAM read bandwidth in MiByte/s
system.mem_ctrls.avgWrBW                         0.00                       # Average achieved write bandwidth in MiByte/s
system.mem_ctrls.avgRdBWSys                     43.08                       # Average system read bandwidth in MiByte/s
system.mem_ctrls.avgWrBWSys                      0.00                       # Average system write bandwidth in MiByte/s
system.mem_ctrls.peakBW                      12800.00                       # Theoretical peak bandwidth in MiByte/s
system.mem_ctrls.busUtil                         0.34                       # Data bus utilization in percentage
system.mem_ctrls.busUtilRead                     0.34                       # Data bus utilization in percentage for reads
system.mem_ctrls.busUtilWrite                    0.00                       # Data bus utilization in percentage for writes
system.mem_ctrls.avgRdQLen                       1.00                       # Average read queue length when enqueuing
system.mem_ctrls.avgWrQLen                       0.00                       # Average write queue length when enqueuing
system.mem_ctrls.readRowHits                   236002                       # Number of row buffer hits during reads
system.mem_ctrls.writeRowHits                       0                       # Number of row buffer hits during writes
system.mem_ctrls.readRowHitRate                 82.06                       # Row buffer hit rate for reads
system.mem_ctrls.writeRowHitRate                  nan                       # Row buffer hit rate for writes
system.mem_ctrls.avgGap                    1485486.34                       # Average gap between requests
system.mem_ctrls.pageHitRate                    82.06                       # Row buffer hit rate, read and write combined
system.mem_ctrls_0.actEnergy                195252120                       # Energy for activate commands per rank (pJ)
system.mem_ctrls_0.preEnergy                106536375                       # Energy for precharge commands per rank (pJ)
system.mem_ctrls_0.readEnergy              1120485600                       # Energy for read commands per rank (pJ)
system.mem_ctrls_0.writeEnergy                      0                       # Energy for write commands per rank (pJ)
system.mem_ctrls_0.refreshEnergy          27903161520                       # Energy for refresh commands per rank (pJ)
system.mem_ctrls_0.actBackEnergy         124060159710                       # Energy for active background per rank (pJ)
system.mem_ctrls_0.preBackEnergy         147500361750                       # Energy for precharge background per rank (pJ)
system.mem_ctrls_0.totalEnergy           300885957075                       # Total energy per rank (pJ)
system.mem_ctrls_0.averagePower            704.307148                       # Core power per rank (mW)
system.mem_ctrls_0.memoryStateTime::IDLE 244731606750                       # Time in different power states
system.mem_ctrls_0.memoryStateTime::REF   14265420000                       # Time in different power states
system.mem_ctrls_0.memoryStateTime::PRE_PDN            0                       # Time in different power states
system.mem_ctrls_0.memoryStateTime::ACT  168213084250                       # Time in different power states
system.mem_ctrls_0.memoryStateTime::ACT_PDN            0                       # Time in different power states
system.mem_ctrls_1.actEnergy                194654880                       # Energy for activate commands per rank (pJ)
system.mem_ctrls_1.preEnergy                106210500                       # Energy for precharge commands per rank (pJ)
system.mem_ctrls_1.readEnergy              1122349800                       # Energy for read commands per rank (pJ)
system.mem_ctrls_1.writeEnergy                      0                       # Energy for write commands per rank (pJ)
system.mem_ctrls_1.refreshEnergy          27903161520                       # Energy for refresh commands per rank (pJ)
system.mem_ctrls_1.actBackEnergy         124450848540                       # Energy for active background per rank (pJ)
system.mem_ctrls_1.preBackEnergy         147157644000                       # Energy for precharge background per rank (pJ)
system.mem_ctrls_1.totalEnergy           300934869240                       # Total energy per rank (pJ)
system.mem_ctrls_1.averagePower            704.421663                       # Core power per rank (mW)
system.mem_ctrls_1.memoryStateTime::IDLE 244162627500                       # Time in different power states
system.mem_ctrls_1.memoryStateTime::REF   14265420000                       # Time in different power states
system.mem_ctrls_1.memoryStateTime::PRE_PDN            0                       # Time in different power states
system.mem_ctrls_1.memoryStateTime::ACT  168785253000                       # Time in different power states
system.mem_ctrls_1.memoryStateTime::ACT_PDN            0                       # Time in different power states
system.cpu_voltage_domain.voltage                   1                       # Voltage in Volts
system.cpu_clk_domain.clock                       500                       # Clock period in ticks
system.cpu0.apic_clk_domain.clock                8000                       # Clock period in ticks
system.cpu0.workload.num_syscalls                  79                       # Number of system calls
system.cpu0.numCycles                       854431105                       # number of cpu cycles simulated
system.cpu0.numWorkItemsStarted                     0                       # number of work items this cpu started
system.cpu0.numWorkItemsCompleted                   0                       # number of work items this cpu completed
system.cpu0.committedInsts                  233683191                       # Number of instructions committed
system.cpu0.committedOps                    635555708                       # Number of ops (including micro ops) committed
system.cpu0.num_int_alu_accesses            601327164                       # Number of integer alu accesses
system.cpu0.num_fp_alu_accesses              14535781                       # Number of float alu accesses
system.cpu0.num_func_calls                   20378936                       # number of times a function call or return occured
system.cpu0.num_conditional_control_insts     51069815                       # number of instructions that are conditional controls
system.cpu0.num_int_insts                   601327164                       # number of integer instructions
system.cpu0.num_fp_insts                     14535781                       # number of float instructions
system.cpu0.num_int_register_reads         1272251309                       # number of times the integer registers were read
system.cpu0.num_int_register_writes         590489634                       # number of times the integer registers were written
system.cpu0.num_fp_register_reads            23359726                       # number of times the floating registers were read
system.cpu0.num_fp_register_writes           11424874                       # number of times the floating registers were written
system.cpu0.num_cc_register_reads           509282525                       # number of times the CC registers were read
system.cpu0.num_cc_register_writes          189896323                       # number of times the CC registers were written
system.cpu0.num_mem_refs                    105311322                       # number of memory refs
system.cpu0.num_load_insts                   64796925                       # Number of load instructions
system.cpu0.num_store_insts                  40514397                       # Number of store instructions
system.cpu0.num_idle_cycles                  0.002000                       # Number of idle cycles
system.cpu0.num_busy_cycles              854431104.998000                       # Number of busy cycles
system.cpu0.not_idle_fraction                1.000000                       # Percentage of non-idle cycles
system.cpu0.idle_fraction                    0.000000                       # Percentage of idle cycles
system.cpu0.Branches                         81219192                       # Number of branches fetched
system.cpu0.op_class::No_OpClass             11822272      1.86%      1.86% # Class of executed instruction
system.cpu0.op_class::IntAlu                456114273     71.77%     73.63% # Class of executed instruction
system.cpu0.op_class::IntMult                     320      0.00%     73.63% # Class of executed instruction
system.cpu0.op_class::IntDiv                 50883458      8.01%     81.63% # Class of executed instruction
system.cpu0.op_class::FloatAdd               11424063      1.80%     83.43% # Class of executed instruction
system.cpu0.op_class::FloatCmp                      0      0.00%     83.43% # Class of executed instruction
system.cpu0.op_class::FloatCvt                      0      0.00%     83.43% # Class of executed instruction
system.cpu0.op_class::FloatMult                     0      0.00%     83.43% # Class of executed instruction
system.cpu0.op_class::FloatDiv                      0      0.00%     83.43% # Class of executed instruction
system.cpu0.op_class::FloatSqrt                     0      0.00%     83.43% # Class of executed instruction
system.cpu0.op_class::SimdAdd                       0      0.00%     83.43% # Class of executed instruction
system.cpu0.op_class::SimdAddAcc                    0      0.00%     83.43% # Class of executed instruction
system.cpu0.op_class::SimdAlu                       0      0.00%     83.43% # Class of executed instruction
system.cpu0.op_class::SimdCmp                       0      0.00%     83.43% # Class of executed instruction
system.cpu0.op_class::SimdCvt                       0      0.00%     83.43% # Class of executed instruction
system.cpu0.op_class::SimdMisc                      0      0.00%     83.43% # Class of executed instruction
system.cpu0.op_class::SimdMult                      0      0.00%     83.43% # Class of executed instruction
system.cpu0.op_class::SimdMultAcc                   0      0.00%     83.43% # Class of executed instruction
system.cpu0.op_class::SimdShift                     0      0.00%     83.43% # Class of executed instruction
system.cpu0.op_class::SimdShiftAcc                  0      0.00%     83.43% # Class of executed instruction
system.cpu0.op_class::SimdSqrt                      0      0.00%     83.43% # Class of executed instruction
system.cpu0.op_class::SimdFloatAdd                  0      0.00%     83.43% # Class of executed instruction
system.cpu0.op_class::SimdFloatAlu                  0      0.00%     83.43% # Class of executed instruction
system.cpu0.op_class::SimdFloatCmp                  0      0.00%     83.43% # Class of executed instruction
system.cpu0.op_class::SimdFloatCvt                  0      0.00%     83.43% # Class of executed instruction
system.cpu0.op_class::SimdFloatDiv                  0      0.00%     83.43% # Class of executed instruction
system.cpu0.op_class::SimdFloatMisc                 0      0.00%     83.43% # Class of executed instruction
system.cpu0.op_class::SimdFloatMult                 0      0.00%     83.43% # Class of executed instruction
system.cpu0.op_class::SimdFloatMultAcc              0      0.00%     83.43% # Class of executed instruction
system.cpu0.op_class::SimdFloatSqrt                 0      0.00%     83.43% # Class of executed instruction
system.cpu0.op_class::MemRead                64796925     10.20%     93.63% # Class of executed instruction
system.cpu0.op_class::MemWrite               40514397      6.37%    100.00% # Class of executed instruction
system.cpu0.op_class::IprAccess                     0      0.00%    100.00% # Class of executed instruction
system.cpu0.op_class::InstPrefetch                  0      0.00%    100.00% # Class of executed instruction
system.cpu0.op_class::total                 635555708                       # Class of executed instruction
system.cpu1.apic_clk_domain.clock                8000                       # Clock period in ticks
system.cpu1.numCycles                       854204079                       # number of cpu cycles simulated
system.cpu1.numWorkItemsStarted                     0                       # number of work items this cpu started
system.cpu1.numWorkItemsCompleted                   0                       # number of work items this cpu completed
system.cpu1.committedInsts                   21006723                       # Number of instructions committed
system.cpu1.committedOps                     41857771                       # Number of ops (including micro ops) committed
system.cpu1.num_int_alu_accesses             32737311                       # Number of integer alu accesses
system.cpu1.num_fp_alu_accesses              22882035                       # Number of float alu accesses
system.cpu1.num_func_calls                      40531                       # number of times a function call or return occured
system.cpu1.num_conditional_control_insts      2310570                       # number of instructions that are conditional controls
system.cpu1.num_int_insts                    32737311                       # number of integer instructions
system.cpu1.num_fp_insts                     22882035                       # number of float instructions
system.cpu1.num_int_register_reads           63226277                       # number of times the integer registers were read
system.cpu1.num_int_register_writes          16641619                       # number of times the integer registers were written
system.cpu1.num_fp_register_reads            31860914                       # number of times the floating registers were read
system.cpu1.num_fp_register_writes           18261133                       # number of times the floating registers were written
system.cpu1.num_cc_register_reads            13883680                       # number of times the CC registers were read
system.cpu1.num_cc_register_writes           13877323                       # number of times the CC registers were written
system.cpu1.num_mem_refs                     13842900                       # number of memory refs
system.cpu1.num_load_insts                    9201655                       # Number of load instructions
system.cpu1.num_store_insts                   4641245                       # Number of store instructions
system.cpu1.num_idle_cycles              757729915.410991                       # Number of idle cycles
system.cpu1.num_busy_cycles              96474163.589009                       # Number of busy cycles
system.cpu1.not_idle_fraction                0.112940                       # Percentage of non-idle cycles
system.cpu1.idle_fraction                    0.887060                       # Percentage of idle cycles
system.cpu1.Branches                          2371387                       # Number of branches fetched
system.cpu1.op_class::No_OpClass                    2      0.00%      0.00% # Class of executed instruction
system.cpu1.op_class::IntAlu                 18836779     45.00%     45.00% # Class of executed instruction
system.cpu1.op_class::IntMult                   57612      0.14%     45.14% # Class of executed instruction
system.cpu1.op_class::IntDiv                       14      0.00%     45.14% # Class of executed instruction
system.cpu1.op_class::FloatAdd                9120464     21.79%     66.93% # Class of executed instruction
system.cpu1.op_class::FloatCmp                      0      0.00%     66.93% # Class of executed instruction
system.cpu1.op_class::FloatCvt                      0      0.00%     66.93% # Class of executed instruction
system.cpu1.op_class::FloatMult                     0      0.00%     66.93% # Class of executed instruction
system.cpu1.op_class::FloatDiv                      0      0.00%     66.93% # Class of executed instruction
system.cpu1.op_class::FloatSqrt                     0      0.00%     66.93% # Class of executed instruction
system.cpu1.op_class::SimdAdd                       0      0.00%     66.93% # Class of executed instruction
system.cpu1.op_class::SimdAddAcc                    0      0.00%     66.93% # Class of executed instruction
system.cpu1.op_class::SimdAlu                       0      0.00%     66.93% # Class of executed instruction
system.cpu1.op_class::SimdCmp                       0      0.00%     66.93% # Class of executed instruction
system.cpu1.op_class::SimdCvt                       0      0.00%     66.93% # Class of executed instruction
system.cpu1.op_class::SimdMisc                      0      0.00%     66.93% # Class of executed instruction
system.cpu1.op_class::SimdMult                      0      0.00%     66.93% # Class of executed instruction
system.cpu1.op_class::SimdMultAcc                   0      0.00%     66.93% # Class of executed instruction
system.cpu1.op_class::SimdShift                     0      0.00%     66.93% # Class of executed instruction
system.cpu1.op_class::SimdShiftAcc                  0      0.00%     66.93% # Class of executed instruction
system.cpu1.op_class::SimdSqrt                      0      0.00%     66.93% # Class of executed instruction
system.cpu1.op_class::SimdFloatAdd                  0      0.00%     66.93% # Class of executed instruction
system.cpu1.op_class::SimdFloatAlu                  0      0.00%     66.93% # Class of executed instruction
system.cpu1.op_class::SimdFloatCmp                  0      0.00%     66.93% # Class of executed instruction
system.cpu1.op_class::SimdFloatCvt                  0      0.00%     66.93% # Class of executed instruction
system.cpu1.op_class::SimdFloatDiv                  0      0.00%     66.93% # Class of executed instruction
system.cpu1.op_class::SimdFloatMisc                 0      0.00%     66.93% # Class of executed instruction
system.cpu1.op_class::SimdFloatMult                 0      0.00%     66.93% # Class of executed instruction
system.cpu1.op_class::SimdFloatMultAcc              0      0.00%     66.93% # Class of executed instruction
system.cpu1.op_class::SimdFloatSqrt                 0      0.00%     66.93% # Class of executed instruction
system.cpu1.op_class::MemRead                 9201655     21.98%     88.91% # Class of executed instruction
system.cpu1.op_class::MemWrite                4641245     11.09%    100.00% # Class of executed instruction
system.cpu1.op_class::IprAccess                     0      0.00%    100.00% # Class of executed instruction
system.cpu1.op_class::InstPrefetch                  0      0.00%    100.00% # Class of executed instruction
system.cpu1.op_class::total                  41857771                       # Class of executed instruction
system.ruby.clk_domain.clock                      500                       # Clock period in ticks
system.ruby.delayHist::bucket_size                  4                       # delay histogram for all message
system.ruby.delayHist::max_bucket                  39                       # delay histogram for all message
system.ruby.delayHist::samples                6162844                       # delay histogram for all message
system.ruby.delayHist::mean                  0.728621                       # delay histogram for all message
system.ruby.delayHist::stdev                 2.301497                       # delay histogram for all message
system.ruby.delayHist                    |     5601366     90.89%     90.89% |         514      0.01%     90.90% |      560961      9.10%    100.00% |           0      0.00%    100.00% |           2      0.00%    100.00% |           0      0.00%    100.00% |           1      0.00%    100.00% |           0      0.00%    100.00% |           0      0.00%    100.00% |           0      0.00%    100.00% # delay histogram for all message
system.ruby.delayHist::total                  6162844                       # delay histogram for all message
system.ruby.outstanding_req_hist::bucket_size            1                      
system.ruby.outstanding_req_hist::max_bucket            9                      
system.ruby.outstanding_req_hist::samples    448451402                      
system.ruby.outstanding_req_hist::mean       1.000247                      
system.ruby.outstanding_req_hist::gmean      1.000171                      
system.ruby.outstanding_req_hist::stdev      0.015706                      
system.ruby.outstanding_req_hist         |           0      0.00%      0.00% |   448340746     99.98%     99.98% |      110656      0.02%    100.00% |           0      0.00%    100.00% |           0      0.00%    100.00% |           0      0.00%    100.00% |           0      0.00%    100.00% |           0      0.00%    100.00% |           0      0.00%    100.00% |           0      0.00%    100.00%
system.ruby.outstanding_req_hist::total     448451402                      
system.ruby.latency_hist::bucket_size             128                      
system.ruby.latency_hist::max_bucket             1279                      
system.ruby.latency_hist::samples           448451402                      
system.ruby.latency_hist::mean               1.120807                      
system.ruby.latency_hist::gmean              1.008050                      
system.ruby.latency_hist::stdev              4.057592                      
system.ruby.latency_hist                 |   448399810     99.99%     99.99% |       42183      0.01%    100.00% |        1148      0.00%    100.00% |        1022      0.00%    100.00% |        6691      0.00%    100.00% |         548      0.00%    100.00% |           0      0.00%    100.00% |           0      0.00%    100.00% |           0      0.00%    100.00% |           0      0.00%    100.00%
system.ruby.latency_hist::total             448451402                      
system.ruby.hit_latency_hist::bucket_size          128                      
system.ruby.hit_latency_hist::max_bucket         1279                      
system.ruby.hit_latency_hist::samples       448451402                      
system.ruby.hit_latency_hist::mean           1.120807                      
system.ruby.hit_latency_hist::gmean          1.008050                      
system.ruby.hit_latency_hist::stdev          4.057592                      
system.ruby.hit_latency_hist             |   448399810     99.99%     99.99% |       42183      0.01%    100.00% |        1148      0.00%    100.00% |        1022      0.00%    100.00% |        6691      0.00%    100.00% |         548      0.00%    100.00% |           0      0.00%    100.00% |           0      0.00%    100.00% |           0      0.00%    100.00% |           0      0.00%    100.00%
system.ruby.hit_latency_hist::total         448451402                      
system.ruby.l0_cntrl0.Dcache.demand_hits    105024193                       # Number of cache demand hits
system.ruby.l0_cntrl0.Dcache.demand_misses       287193                       # Number of cache demand misses
system.ruby.l0_cntrl0.Dcache.demand_accesses    105311386                       # Number of cache demand accesses
system.ruby.l0_cntrl0.Icache.demand_hits    302323262                       # Number of cache demand hits
system.ruby.l0_cntrl0.Icache.demand_misses         2254                       # Number of cache demand misses
system.ruby.l0_cntrl0.Icache.demand_accesses    302325516                       # Number of cache demand accesses
system.ruby.l0_cntrl0.Zcache.demand_hits            0                       # Number of cache demand hits
system.ruby.l0_cntrl0.Zcache.demand_misses            0                       # Number of cache demand misses
system.ruby.l0_cntrl0.Zcache.demand_accesses            0                       # Number of cache demand accesses
system.ruby.l0_cntrl1.Dcache.demand_hits     13233360                       # Number of cache demand hits
system.ruby.l0_cntrl1.Dcache.demand_misses       720132                       # Number of cache demand misses
system.ruby.l0_cntrl1.Dcache.demand_accesses     13953492                       # Number of cache demand accesses
system.ruby.l0_cntrl1.Icache.demand_hits     26860044                       # Number of cache demand hits
system.ruby.l0_cntrl1.Icache.demand_misses          964                       # Number of cache demand misses
system.ruby.l0_cntrl1.Icache.demand_accesses     26861008                       # Number of cache demand accesses
system.ruby.l0_cntrl1.Zcache.demand_hits            0                       # Number of cache demand hits
system.ruby.l0_cntrl1.Zcache.demand_misses            0                       # Number of cache demand misses
system.ruby.l0_cntrl1.Zcache.demand_accesses            0                       # Number of cache demand accesses
system.ruby.l1_cntrl0.cache.demand_hits           132                       # Number of cache demand hits
system.ruby.l1_cntrl0.cache.demand_misses       289315                       # Number of cache demand misses
system.ruby.l1_cntrl0.cache.demand_accesses       289447                       # Number of cache demand accesses
system.ruby.l1_cntrl1.cache.demand_hits         38017                       # Number of cache demand hits
system.ruby.l1_cntrl1.cache.demand_misses       683079                       # Number of cache demand misses
system.ruby.l1_cntrl1.cache.demand_accesses       721096                       # Number of cache demand accesses
system.ruby.l2_cntrl0.L2cache.demand_hits       680771                       # Number of cache demand hits
system.ruby.l2_cntrl0.L2cache.demand_misses       291623                       # Number of cache demand misses
system.ruby.l2_cntrl0.L2cache.demand_accesses       972394                       # Number of cache demand accesses
system.ruby.memctrl_clk_domain.clock             1500                       # Clock period in ticks
system.ruby.network.routers0.percent_links_utilized            0                      
system.ruby.network.routers1.percent_links_utilized            0                      
system.ruby.network.routers2.percent_links_utilized     0.178696                      
system.ruby.network.routers2.msg_count.Control::0       289315                      
system.ruby.network.routers2.msg_count.Request_Control::2         7988                      
system.ruby.network.routers2.msg_count.Response_Data::1       297334                      
system.ruby.network.routers2.msg_count.Response_Control::1       288511                      
system.ruby.network.routers2.msg_count.Response_Control::2       289314                      
system.ruby.network.routers2.msg_count.Writeback_Data::0       283964                      
system.ruby.network.routers2.msg_count.Writeback_Control::0          543                      
system.ruby.network.routers2.msg_bytes.Control::0      2314520                      
system.ruby.network.routers2.msg_bytes.Request_Control::2        63904                      
system.ruby.network.routers2.msg_bytes.Response_Data::1     21408048                      
system.ruby.network.routers2.msg_bytes.Response_Control::1      2308088                      
system.ruby.network.routers2.msg_bytes.Response_Control::2      2314512                      
system.ruby.network.routers2.msg_bytes.Writeback_Data::0     20445408                      
system.ruby.network.routers2.msg_bytes.Writeback_Control::0         4344                      
system.ruby.network.routers3.percent_links_utilized     0.322436                      
system.ruby.network.routers3.msg_count.Control::0       683079                      
system.ruby.network.routers3.msg_count.Request_Control::2           28                      
system.ruby.network.routers3.msg_count.Response_Data::1       679131                      
system.ruby.network.routers3.msg_count.Response_Control::1       682932                      
system.ruby.network.routers3.msg_count.Response_Control::2       683045                      
system.ruby.network.routers3.msg_count.Writeback_Data::0       272967                      
system.ruby.network.routers3.msg_count.Writeback_Control::0       402009                      
system.ruby.network.routers3.msg_bytes.Control::0      5464632                      
system.ruby.network.routers3.msg_bytes.Request_Control::2          224                      
system.ruby.network.routers3.msg_bytes.Response_Data::1     48897432                      
system.ruby.network.routers3.msg_bytes.Response_Control::1      5463456                      
system.ruby.network.routers3.msg_bytes.Response_Control::2      5464360                      
system.ruby.network.routers3.msg_bytes.Writeback_Data::0     19653624                      
system.ruby.network.routers3.msg_bytes.Writeback_Control::0      3216072                      
system.ruby.network.routers4.percent_links_utilized     0.582925                      
system.ruby.network.routers4.msg_count.Control::0      1259987                      
system.ruby.network.routers4.msg_count.Request_Control::2         8016                      
system.ruby.network.routers4.msg_count.Response_Data::1      1255999                      
system.ruby.network.routers4.msg_count.Response_Control::1       963469                      
system.ruby.network.routers4.msg_count.Response_Control::2       972359                      
system.ruby.network.routers4.msg_count.Writeback_Data::0       556931                      
system.ruby.network.routers4.msg_count.Writeback_Control::0       402552                      
system.ruby.network.routers4.msg_bytes.Control::0     10079896                      
system.ruby.network.routers4.msg_bytes.Request_Control::2        64128                      
system.ruby.network.routers4.msg_bytes.Response_Data::1     90431928                      
system.ruby.network.routers4.msg_bytes.Response_Control::1      7707752                      
system.ruby.network.routers4.msg_bytes.Response_Control::2      7778872                      
system.ruby.network.routers4.msg_bytes.Writeback_Data::0     40099032                      
system.ruby.network.routers4.msg_bytes.Writeback_Control::0      3220416                      
system.ruby.network.routers5.percent_links_utilized     0.084148                      
system.ruby.network.routers5.msg_count.Control::0       287593                      
system.ruby.network.routers5.msg_count.Response_Data::1       287593                      
system.ruby.network.routers5.msg_bytes.Control::0      2300744                      
system.ruby.network.routers5.msg_bytes.Response_Data::1     20706696                      
system.ruby.network.routers6.percent_links_utilized     0.194701                      
system.ruby.network.routers6.msg_count.Control::0      1259987                      
system.ruby.network.routers6.msg_count.Request_Control::2         8016                      
system.ruby.network.routers6.msg_count.Response_Data::1      1260029                      
system.ruby.network.routers6.msg_count.Response_Control::1       967456                      
system.ruby.network.routers6.msg_count.Response_Control::2       972359                      
system.ruby.network.routers6.msg_count.Writeback_Data::0       556931                      
system.ruby.network.routers6.msg_count.Writeback_Control::0       402552                      
system.ruby.network.routers6.msg_bytes.Control::0     10079896                      
system.ruby.network.routers6.msg_bytes.Request_Control::2        64128                      
system.ruby.network.routers6.msg_bytes.Response_Data::1     90722088                      
system.ruby.network.routers6.msg_bytes.Response_Control::1      7739648                      
system.ruby.network.routers6.msg_bytes.Response_Control::2      7778872                      
system.ruby.network.routers6.msg_bytes.Writeback_Data::0     40099032                      
system.ruby.network.routers6.msg_bytes.Writeback_Control::0      3220416                      
system.ruby.network.msg_count.Control         3779961                      
system.ruby.network.msg_count.Request_Control        24048                      
system.ruby.network.msg_count.Response_Data      3780086                      
system.ruby.network.msg_count.Response_Control      5819445                      
system.ruby.network.msg_count.Writeback_Data      1670793                      
system.ruby.network.msg_count.Writeback_Control      1207656                      
system.ruby.network.msg_byte.Control         30239688                      
system.ruby.network.msg_byte.Request_Control       192384                      
system.ruby.network.msg_byte.Response_Data    272166192                      
system.ruby.network.msg_byte.Response_Control     46555560                      
system.ruby.network.msg_byte.Writeback_Data    120297096                      
system.ruby.network.msg_byte.Writeback_Control      9661248                      
system.ruby.network.routers0.throttle0.link_utilization            0                      
system.ruby.network.routers0.throttle1.link_utilization            0                      
system.ruby.network.routers1.throttle0.link_utilization            0                      
system.ruby.network.routers1.throttle1.link_utilization            0                      
system.ruby.network.routers2.throttle0.link_utilization     0.169482                      
system.ruby.network.routers2.throttle0.msg_count.Request_Control::2         7988                      
system.ruby.network.routers2.throttle0.msg_count.Response_Data::1       289298                      
system.ruby.network.routers2.throttle0.msg_count.Response_Control::1       284541                      
system.ruby.network.routers2.throttle0.msg_bytes.Request_Control::2        63904                      
system.ruby.network.routers2.throttle0.msg_bytes.Response_Data::1     20829456                      
system.ruby.network.routers2.throttle0.msg_bytes.Response_Control::1      2276328                      
system.ruby.network.routers2.throttle1.link_utilization     0.187911                      
system.ruby.network.routers2.throttle1.msg_count.Control::0       289315                      
system.ruby.network.routers2.throttle1.msg_count.Response_Data::1         8036                      
system.ruby.network.routers2.throttle1.msg_count.Response_Control::1         3970                      
system.ruby.network.routers2.throttle1.msg_count.Response_Control::2       289314                      
system.ruby.network.routers2.throttle1.msg_count.Writeback_Data::0       283964                      
system.ruby.network.routers2.throttle1.msg_count.Writeback_Control::0          543                      
system.ruby.network.routers2.throttle1.msg_bytes.Control::0      2314520                      
system.ruby.network.routers2.throttle1.msg_bytes.Response_Data::1       578592                      
system.ruby.network.routers2.throttle1.msg_bytes.Response_Control::1        31760                      
system.ruby.network.routers2.throttle1.msg_bytes.Response_Control::2      2314512                      
system.ruby.network.routers2.throttle1.msg_bytes.Writeback_Data::0     20445408                      
system.ruby.network.routers2.throttle1.msg_bytes.Writeback_Control::0         4344                      
system.ruby.network.routers3.throttle0.link_utilization     0.397629                      
system.ruby.network.routers3.throttle0.msg_count.Request_Control::2           28                      
system.ruby.network.routers3.throttle0.msg_count.Response_Data::1       679110                      
system.ruby.network.routers3.throttle0.msg_count.Response_Control::1       682915                      
system.ruby.network.routers3.throttle0.msg_bytes.Request_Control::2          224                      
system.ruby.network.routers3.throttle0.msg_bytes.Response_Data::1     48895920                      
system.ruby.network.routers3.throttle0.msg_bytes.Response_Control::1      5463320                      
system.ruby.network.routers3.throttle1.link_utilization     0.247243                      
system.ruby.network.routers3.throttle1.msg_count.Control::0       683079                      
system.ruby.network.routers3.throttle1.msg_count.Response_Data::1           21                      
system.ruby.network.routers3.throttle1.msg_count.Response_Control::1           17                      
system.ruby.network.routers3.throttle1.msg_count.Response_Control::2       683045                      
system.ruby.network.routers3.throttle1.msg_count.Writeback_Data::0       272967                      
system.ruby.network.routers3.throttle1.msg_count.Writeback_Control::0       402009                      
system.ruby.network.routers3.throttle1.msg_bytes.Control::0      5464632                      
system.ruby.network.routers3.throttle1.msg_bytes.Response_Data::1         1512                      
system.ruby.network.routers3.throttle1.msg_bytes.Response_Control::1          136                      
system.ruby.network.routers3.throttle1.msg_bytes.Response_Control::2      5464360                      
system.ruby.network.routers3.throttle1.msg_bytes.Writeback_Data::0     19653624                      
system.ruby.network.routers3.throttle1.msg_bytes.Writeback_Control::0      3216072                      
system.ruby.network.routers4.throttle0.link_utilization     0.584264                      
system.ruby.network.routers4.throttle0.msg_count.Control::0       972394                      
system.ruby.network.routers4.throttle0.msg_count.Response_Data::1       291621                      
system.ruby.network.routers4.throttle0.msg_count.Response_Control::2       972359                      
system.ruby.network.routers4.throttle0.msg_count.Writeback_Data::0       556931                      
system.ruby.network.routers4.throttle0.msg_count.Writeback_Control::0       402552                      
system.ruby.network.routers4.throttle0.msg_bytes.Control::0      7779152                      
system.ruby.network.routers4.throttle0.msg_bytes.Response_Data::1     20996712                      
system.ruby.network.routers4.throttle0.msg_bytes.Response_Control::2      7778872                      
system.ruby.network.routers4.throttle0.msg_bytes.Writeback_Data::0     40099032                      
system.ruby.network.routers4.throttle0.msg_bytes.Writeback_Control::0      3220416                      
system.ruby.network.routers4.throttle1.link_utilization     0.581585                      
system.ruby.network.routers4.throttle1.msg_count.Control::0       287593                      
system.ruby.network.routers4.throttle1.msg_count.Request_Control::2         8016                      
system.ruby.network.routers4.throttle1.msg_count.Response_Data::1       964378                      
system.ruby.network.routers4.throttle1.msg_count.Response_Control::1       963469                      
system.ruby.network.routers4.throttle1.msg_bytes.Control::0      2300744                      
system.ruby.network.routers4.throttle1.msg_bytes.Request_Control::2        64128                      
system.ruby.network.routers4.throttle1.msg_bytes.Response_Data::1     69435216                      
system.ruby.network.routers4.throttle1.msg_bytes.Response_Control::1      7707752                      
system.ruby.network.routers5.throttle0.link_utilization     0.016830                      
system.ruby.network.routers5.throttle0.msg_count.Control::0       287593                      
system.ruby.network.routers5.throttle0.msg_bytes.Control::0      2300744                      
system.ruby.network.routers5.throttle1.link_utilization     0.151466                      
system.ruby.network.routers5.throttle1.msg_count.Response_Data::1       287593                      
system.ruby.network.routers5.throttle1.msg_bytes.Response_Data::1     20706696                      
system.ruby.network.routers6.throttle0.link_utilization            0                      
system.ruby.network.routers6.throttle1.link_utilization            0                      
system.ruby.network.routers6.throttle2.link_utilization     0.169482                      
system.ruby.network.routers6.throttle2.msg_count.Request_Control::2         7988                      
system.ruby.network.routers6.throttle2.msg_count.Response_Data::1       289298                      
system.ruby.network.routers6.throttle2.msg_count.Response_Control::1       284541                      
system.ruby.network.routers6.throttle2.msg_bytes.Request_Control::2        63904                      
system.ruby.network.routers6.throttle2.msg_bytes.Response_Data::1     20829456                      
system.ruby.network.routers6.throttle2.msg_bytes.Response_Control::1      2276328                      
system.ruby.network.routers6.throttle3.link_utilization     0.397629                      
system.ruby.network.routers6.throttle3.msg_count.Request_Control::2           28                      
system.ruby.network.routers6.throttle3.msg_count.Response_Data::1       679110                      
system.ruby.network.routers6.throttle3.msg_count.Response_Control::1       682915                      
system.ruby.network.routers6.throttle3.msg_bytes.Request_Control::2          224                      
system.ruby.network.routers6.throttle3.msg_bytes.Response_Data::1     48895920                      
system.ruby.network.routers6.throttle3.msg_bytes.Response_Control::1      5463320                      
system.ruby.network.routers6.throttle4.link_utilization     0.584264                      
system.ruby.network.routers6.throttle4.msg_count.Control::0       972394                      
system.ruby.network.routers6.throttle4.msg_count.Response_Data::1       291621                      
system.ruby.network.routers6.throttle4.msg_count.Response_Control::2       972359                      
system.ruby.network.routers6.throttle4.msg_count.Writeback_Data::0       556931                      
system.ruby.network.routers6.throttle4.msg_count.Writeback_Control::0       402552                      
system.ruby.network.routers6.throttle4.msg_bytes.Control::0      7779152                      
system.ruby.network.routers6.throttle4.msg_bytes.Response_Data::1     20996712                      
system.ruby.network.routers6.throttle4.msg_bytes.Response_Control::2      7778872                      
system.ruby.network.routers6.throttle4.msg_bytes.Writeback_Data::0     40099032                      
system.ruby.network.routers6.throttle4.msg_bytes.Writeback_Control::0      3220416                      
system.ruby.network.routers6.throttle5.link_utilization     0.016830                      
system.ruby.network.routers6.throttle5.msg_count.Control::0       287593                      
system.ruby.network.routers6.throttle5.msg_bytes.Control::0      2300744                      
system.ruby.delayVCHist.vnet_0::bucket_size            4                       # delay histogram for vnet_0
system.ruby.delayVCHist.vnet_0::max_bucket           39                       # delay histogram for vnet_0
system.ruby.delayVCHist.vnet_0::samples       2904236                       # delay histogram for vnet_0
system.ruby.delayVCHist.vnet_0::mean         1.534162                       # delay histogram for vnet_0
system.ruby.delayVCHist.vnet_0::stdev        3.149566                       # delay histogram for vnet_0
system.ruby.delayVCHist.vnet_0           |     2347302     80.82%     80.82% |           0      0.00%     80.82% |      556931     19.18%    100.00% |           0      0.00%    100.00% |           2      0.00%    100.00% |           0      0.00%    100.00% |           1      0.00%    100.00% |           0      0.00%    100.00% |           0      0.00%    100.00% |           0      0.00%    100.00% # delay histogram for vnet_0
system.ruby.delayVCHist.vnet_0::total         2904236                       # delay histogram for vnet_0
system.ruby.delayVCHist.vnet_1::bucket_size            1                       # delay histogram for vnet_1
system.ruby.delayVCHist.vnet_1::max_bucket            9                       # delay histogram for vnet_1
system.ruby.delayVCHist.vnet_1::samples       3238028                       # delay histogram for vnet_1
system.ruby.delayVCHist.vnet_1::mean         0.009957                       # delay histogram for vnet_1
system.ruby.delayVCHist.vnet_1::stdev        0.282054                       # delay histogram for vnet_1
system.ruby.delayVCHist.vnet_1           |     3233998     99.88%     99.88% |           0      0.00%     99.88% |           0      0.00%     99.88% |           0      0.00%     99.88% |           0      0.00%     99.88% |           0      0.00%     99.88% |           0      0.00%     99.88% |           0      0.00%     99.88% |        4030      0.12%    100.00% |           0      0.00%    100.00% # delay histogram for vnet_1
system.ruby.delayVCHist.vnet_1::total         3238028                       # delay histogram for vnet_1
system.ruby.delayVCHist.vnet_2::bucket_size            1                       # delay histogram for vnet_2
system.ruby.delayVCHist.vnet_2::max_bucket            9                       # delay histogram for vnet_2
system.ruby.delayVCHist.vnet_2::samples         20580                       # delay histogram for vnet_2
system.ruby.delayVCHist.vnet_2::mean         0.124879                       # delay histogram for vnet_2
system.ruby.delayVCHist.vnet_2::stdev        0.780274                       # delay histogram for vnet_2
system.ruby.delayVCHist.vnet_2           |       20066     97.50%     97.50% |           0      0.00%     97.50% |           0      0.00%     97.50% |           0      0.00%     97.50% |           0      0.00%     97.50% |         514      2.50%    100.00% |           0      0.00%    100.00% |           0      0.00%    100.00% |           0      0.00%    100.00% |           0      0.00%    100.00% # delay histogram for vnet_2
system.ruby.delayVCHist.vnet_2::total           20580                       # delay histogram for vnet_2
system.ruby.LD.latency_hist::bucket_size          128                      
system.ruby.LD.latency_hist::max_bucket          1279                      
system.ruby.LD.latency_hist::samples         67280712                      
system.ruby.LD.latency_hist::mean            1.221929                      
system.ruby.LD.latency_hist::gmean           1.032917                      
system.ruby.LD.latency_hist::stdev           2.205502                      
system.ruby.LD.latency_hist              |    67280601    100.00%    100.00% |         106      0.00%    100.00% |           0      0.00%    100.00% |           0      0.00%    100.00% |           3      0.00%    100.00% |           2      0.00%    100.00% |           0      0.00%    100.00% |           0      0.00%    100.00% |           0      0.00%    100.00% |           0      0.00%    100.00%
system.ruby.LD.latency_hist::total           67280712                      
system.ruby.LD.hit_latency_hist::bucket_size          128                      
system.ruby.LD.hit_latency_hist::max_bucket         1279                      
system.ruby.LD.hit_latency_hist::samples     67280712                      
system.ruby.LD.hit_latency_hist::mean        1.221929                      
system.ruby.LD.hit_latency_hist::gmean       1.032917                      
system.ruby.LD.hit_latency_hist::stdev       2.205502                      
system.ruby.LD.hit_latency_hist          |    67280601    100.00%    100.00% |         106      0.00%    100.00% |           0      0.00%    100.00% |           0      0.00%    100.00% |           3      0.00%    100.00% |           2      0.00%    100.00% |           0      0.00%    100.00% |           0      0.00%    100.00% |           0      0.00%    100.00% |           0      0.00%    100.00%
system.ruby.LD.hit_latency_hist::total       67280712                      
system.ruby.ST.latency_hist::bucket_size          128                      
system.ruby.ST.latency_hist::max_bucket          1279                      
system.ruby.ST.latency_hist::samples         38401230                      
system.ruby.ST.latency_hist::mean            2.016775                      
system.ruby.ST.latency_hist::gmean           1.037246                      
system.ruby.ST.latency_hist::stdev          13.497688                      
system.ruby.ST.latency_hist              |    38350028     99.87%     99.87% |       41811      0.11%     99.98% |        1146      0.00%     99.98% |        1021      0.00%     99.98% |        6680      0.02%    100.00% |         544      0.00%    100.00% |           0      0.00%    100.00% |           0      0.00%    100.00% |           0      0.00%    100.00% |           0      0.00%    100.00%
system.ruby.ST.latency_hist::total           38401230                      
system.ruby.ST.hit_latency_hist::bucket_size          128                      
system.ruby.ST.hit_latency_hist::max_bucket         1279                      
system.ruby.ST.hit_latency_hist::samples     38401230                      
system.ruby.ST.hit_latency_hist::mean        2.016775                      
system.ruby.ST.hit_latency_hist::gmean       1.037246                      
system.ruby.ST.hit_latency_hist::stdev      13.497688                      
system.ruby.ST.hit_latency_hist          |    38350028     99.87%     99.87% |       41811      0.11%     99.98% |        1146      0.00%     99.98% |        1021      0.00%     99.98% |        6680      0.02%    100.00% |         544      0.00%    100.00% |           0      0.00%    100.00% |           0      0.00%    100.00% |           0      0.00%    100.00% |           0      0.00%    100.00%
system.ruby.ST.hit_latency_hist::total       38401230                      
system.ruby.IFETCH.latency_hist::bucket_size          128                      
system.ruby.IFETCH.latency_hist::max_bucket         1279                      
system.ruby.IFETCH.latency_hist::samples    329186524                      
system.ruby.IFETCH.latency_hist::mean        1.000597                      
system.ruby.IFETCH.latency_hist::gmean       1.000037                      
system.ruby.IFETCH.latency_hist::stdev       0.265928                      
system.ruby.IFETCH.latency_hist          |   329186246    100.00%    100.00% |         265      0.00%    100.00% |           2      0.00%    100.00% |           1      0.00%    100.00% |           8      0.00%    100.00% |           2      0.00%    100.00% |           0      0.00%    100.00% |           0      0.00%    100.00% |           0      0.00%    100.00% |           0      0.00%    100.00%
system.ruby.IFETCH.latency_hist::total      329186524                      
system.ruby.IFETCH.hit_latency_hist::bucket_size          128                      
system.ruby.IFETCH.hit_latency_hist::max_bucket         1279                      
system.ruby.IFETCH.hit_latency_hist::samples    329186524                      
system.ruby.IFETCH.hit_latency_hist::mean     1.000597                      
system.ruby.IFETCH.hit_latency_hist::gmean     1.000037                      
system.ruby.IFETCH.hit_latency_hist::stdev     0.265928                      
system.ruby.IFETCH.hit_latency_hist      |   329186246    100.00%    100.00% |         265      0.00%    100.00% |           2      0.00%    100.00% |           1      0.00%    100.00% |           8      0.00%    100.00% |           2      0.00%    100.00% |           0      0.00%    100.00% |           0      0.00%    100.00% |           0      0.00%    100.00% |           0      0.00%    100.00%
system.ruby.IFETCH.hit_latency_hist::total    329186524                      
system.ruby.RMW_Read.latency_hist::bucket_size            4                      
system.ruby.RMW_Read.latency_hist::max_bucket           39                      
system.ruby.RMW_Read.latency_hist::samples          374                      
system.ruby.RMW_Read.latency_hist::mean      1.711230                      
system.ruby.RMW_Read.latency_hist::gmean     1.096453                      
system.ruby.RMW_Read.latency_hist::stdev     4.326120                      
system.ruby.RMW_Read.latency_hist        |         363     97.06%     97.06% |           1      0.27%     97.33% |           0      0.00%     97.33% |           0      0.00%     97.33% |           0      0.00%     97.33% |           4      1.07%     98.40% |           0      0.00%     98.40% |           2      0.53%     98.93% |           4      1.07%    100.00% |           0      0.00%    100.00%
system.ruby.RMW_Read.latency_hist::total          374                      
system.ruby.RMW_Read.hit_latency_hist::bucket_size            4                      
system.ruby.RMW_Read.hit_latency_hist::max_bucket           39                      
system.ruby.RMW_Read.hit_latency_hist::samples          374                      
system.ruby.RMW_Read.hit_latency_hist::mean     1.711230                      
system.ruby.RMW_Read.hit_latency_hist::gmean     1.096453                      
system.ruby.RMW_Read.hit_latency_hist::stdev     4.326120                      
system.ruby.RMW_Read.hit_latency_hist    |         363     97.06%     97.06% |           1      0.27%     97.33% |           0      0.00%     97.33% |           0      0.00%     97.33% |           0      0.00%     97.33% |           4      1.07%     98.40% |           0      0.00%     98.40% |           2      0.53%     98.93% |           4      1.07%    100.00% |           0      0.00%    100.00%
system.ruby.RMW_Read.hit_latency_hist::total          374                      
system.ruby.Locked_RMW_Read.latency_hist::bucket_size           16                      
system.ruby.Locked_RMW_Read.latency_hist::max_bucket          159                      
system.ruby.Locked_RMW_Read.latency_hist::samples      6791281                      
system.ruby.Locked_RMW_Read.latency_hist::mean     1.000302                      
system.ruby.Locked_RMW_Read.latency_hist::gmean     1.000037                      
system.ruby.Locked_RMW_Read.latency_hist::stdev     0.105606                      
system.ruby.Locked_RMW_Read.latency_hist |     6791204    100.00%    100.00% |          75      0.00%    100.00% |           0      0.00%    100.00% |           0      0.00%    100.00% |           0      0.00%    100.00% |           0      0.00%    100.00% |           0      0.00%    100.00% |           1      0.00%    100.00% |           1      0.00%    100.00% |           0      0.00%    100.00%
system.ruby.Locked_RMW_Read.latency_hist::total      6791281                      
system.ruby.Locked_RMW_Read.hit_latency_hist::bucket_size           16                      
system.ruby.Locked_RMW_Read.hit_latency_hist::max_bucket          159                      
system.ruby.Locked_RMW_Read.hit_latency_hist::samples      6791281                      
system.ruby.Locked_RMW_Read.hit_latency_hist::mean     1.000302                      
system.ruby.Locked_RMW_Read.hit_latency_hist::gmean     1.000037                      
system.ruby.Locked_RMW_Read.hit_latency_hist::stdev     0.105606                      
system.ruby.Locked_RMW_Read.hit_latency_hist |     6791204    100.00%    100.00% |          75      0.00%    100.00% |           0      0.00%    100.00% |           0      0.00%    100.00% |           0      0.00%    100.00% |           0      0.00%    100.00% |           0      0.00%    100.00% |           1      0.00%    100.00% |           1      0.00%    100.00% |           0      0.00%    100.00%
system.ruby.Locked_RMW_Read.hit_latency_hist::total      6791281                      
system.ruby.Locked_RMW_Write.latency_hist::bucket_size            1                      
system.ruby.Locked_RMW_Write.latency_hist::max_bucket            9                      
system.ruby.Locked_RMW_Write.latency_hist::samples      6791281                      
system.ruby.Locked_RMW_Write.latency_hist::mean            1                      
system.ruby.Locked_RMW_Write.latency_hist::gmean            1                      
[...]
system.ruby.L0Cache_Controller.Ifetch::total    329186524                      
system.ruby.L0Cache_Controller.Store     |    47306050     91.00%     91.00% |     4678116      9.00%    100.00%
system.ruby.L0Cache_Controller.Store::total     51984166                      
system.ruby.L0Cache_Controller.Inv       |        2266     18.04%     18.04% |       10298     81.96%    100.00%
system.ruby.L0Cache_Controller.Inv::total        12564                      
system.ruby.L0Cache_Controller.L0_Replacement |      286471     28.85%     28.85% |      706337     71.15%    100.00%
system.ruby.L0Cache_Controller.L0_Replacement::total       992808                      
system.ruby.L0Cache_Controller.Data      |          26      0.64%      0.64% |        4055     99.36%    100.00%
system.ruby.L0Cache_Controller.Data::total         4081                      
system.ruby.L0Cache_Controller.Data_Exclusive |      289421     28.76%     28.76% |      717041     71.24%    100.00%
system.ruby.L0Cache_Controller.Data_Exclusive::total      1006462                      
system.ruby.L0Cache_Controller.NP.Load   |         757      0.11%      0.11% |      716143     99.89%    100.00%
system.ruby.L0Cache_Controller.NP.Load::total       716900                      
system.ruby.L0Cache_Controller.NP.Ifetch |        2254     70.04%     70.04% |         964     29.96%    100.00%
system.ruby.L0Cache_Controller.NP.Ifetch::total         3218                      
system.ruby.L0Cache_Controller.NP.Store  |      286419     99.99%     99.99% |          20      0.01%    100.00%
system.ruby.L0Cache_Controller.NP.Store::total       286439                      
system.ruby.L0Cache_Controller.NP.Inv    |           0      0.00%      0.00% |          33    100.00%    100.00%
system.ruby.L0Cache_Controller.NP.Inv::total           33                      
system.ruby.L0Cache_Controller.S.Load    |     5361230     99.86%     99.86% |        7417      0.14%    100.00%
system.ruby.L0Cache_Controller.S.Load::total      5368647                      
system.ruby.L0Cache_Controller.S.Ifetch  |          24      7.25%      7.25% |         307     92.75%    100.00%
system.ruby.L0Cache_Controller.S.Ifetch::total          331                      
system.ruby.L0Cache_Controller.S.Store   |          17      0.43%      0.43% |        3969     99.57%    100.00%
system.ruby.L0Cache_Controller.S.Store::total         3986                      
system.ruby.L0Cache_Controller.S.Inv     |           1      6.67%      6.67% |          14     93.33%    100.00%
system.ruby.L0Cache_Controller.S.Inv::total           15                      
system.ruby.L0Cache_Controller.S.L0_Replacement |           5      6.85%      6.85% |          68     93.15%    100.00%
system.ruby.L0Cache_Controller.S.L0_Replacement::total           73                      
system.ruby.L0Cache_Controller.E.Load    |     6705718     60.10%     60.10% |     4452248     39.90%    100.00%
system.ruby.L0Cache_Controller.E.Load::total     11157966                      
system.ruby.L0Cache_Controller.E.Ifetch  |   302323238     91.84%     91.84% |    26859737      8.16%    100.00%
system.ruby.L0Cache_Controller.E.Ifetch::total    329182975                      
system.ruby.L0Cache_Controller.E.Store   |         326      0.12%      0.12% |      266219     99.88%    100.00%
system.ruby.L0Cache_Controller.E.Store::total       266545                      
system.ruby.L0Cache_Controller.E.Inv     |        1353     20.66%     20.66% |        5195     79.34%    100.00%
system.ruby.L0Cache_Controller.E.Inv::total         6548                      
system.ruby.L0Cache_Controller.E.L0_Replacement |         739      0.17%      0.17% |      441541     99.83%    100.00%
system.ruby.L0Cache_Controller.E.L0_Replacement::total       442280                      
system.ruby.L0Cache_Controller.M.Load    |    45937631     91.81%     91.81% |     4099568      8.19%    100.00%
system.ruby.L0Cache_Controller.M.Load::total     50037199                      
system.ruby.L0Cache_Controller.M.Store   |    47019288     91.43%     91.43% |     4407908      8.57%    100.00%
system.ruby.L0Cache_Controller.M.Store::total     51427196                      
system.ruby.L0Cache_Controller.M.Inv     |         912     15.28%     15.28% |        5056     84.72%    100.00%
system.ruby.L0Cache_Controller.M.Inv::total         5968                      
system.ruby.L0Cache_Controller.M.L0_Replacement |      285727     51.91%     51.91% |      264728     48.09%    100.00%
system.ruby.L0Cache_Controller.M.L0_Replacement::total       550455                      
system.ruby.L0Cache_Controller.IS.Data   |          26      0.64%      0.64% |        4055     99.36%    100.00%
system.ruby.L0Cache_Controller.IS.Data::total         4081                      
system.ruby.L0Cache_Controller.IS.Data_Exclusive |        2985      0.42%      0.42% |      713052     99.58%    100.00%
system.ruby.L0Cache_Controller.IS.Data_Exclusive::total       716037                      
system.ruby.L0Cache_Controller.IM.Data_Exclusive |      286419     99.99%     99.99% |          20      0.01%    100.00%
system.ruby.L0Cache_Controller.IM.Data_Exclusive::total       286439                      
system.ruby.L0Cache_Controller.SM.Data_Exclusive |          17      0.43%      0.43% |        3969     99.57%    100.00%
system.ruby.L0Cache_Controller.SM.Data_Exclusive::total         3986                      
system.ruby.L1Cache_Controller.Load      |        3011      0.42%      0.42% |      717107     99.58%    100.00%
system.ruby.L1Cache_Controller.Load::total       720118                      
system.ruby.L1Cache_Controller.Store     |      286436     98.63%     98.63% |        3989      1.37%    100.00%
system.ruby.L1Cache_Controller.Store::total       290425                      
system.ruby.L1Cache_Controller.WriteBack |      286466     28.86%     28.86% |      706269     71.14%    100.00%
system.ruby.L1Cache_Controller.WriteBack::total       992735                      
system.ruby.L1Cache_Controller.L0_DataAck |         912     15.28%     15.28% |        5056     84.72%    100.00%
system.ruby.L1Cache_Controller.L0_DataAck::total         5968                      
system.ruby.L1Cache_Controller.Inv       |        3970     99.57%     99.57% |          17      0.43%    100.00%
system.ruby.L1Cache_Controller.Inv::total         3987                      
system.ruby.L1Cache_Controller.L0_Invalidate_Own |        3538     14.68%     14.68% |       20562     85.32%    100.00%
system.ruby.L1Cache_Controller.L0_Invalidate_Own::total        24100                      
system.ruby.L1Cache_Controller.L0_Invalidate_Else |         994     96.69%     96.69% |          34      3.31%    100.00%
system.ruby.L1Cache_Controller.L0_Invalidate_Else::total         1028                      
system.ruby.L1Cache_Controller.L1_Replacement |      284507     29.65%     29.65% |      675014     70.35%    100.00%
system.ruby.L1Cache_Controller.L1_Replacement::total       959521                      
system.ruby.L1Cache_Controller.Fwd_GETX  |           0      0.00%      0.00% |           1    100.00%    100.00%
system.ruby.L1Cache_Controller.Fwd_GETX::total            1                      
system.ruby.L1Cache_Controller.Fwd_GETS  |        4018     99.75%     99.75% |          10      0.25%    100.00%
system.ruby.L1Cache_Controller.Fwd_GETS::total         4028                      
system.ruby.L1Cache_Controller.Data      |           0      0.00%      0.00% |           1    100.00%    100.00%
system.ruby.L1Cache_Controller.Data::total            1                      
system.ruby.L1Cache_Controller.Data_Exclusive |        2877      0.42%      0.42% |      675039     99.58%    100.00%
system.ruby.L1Cache_Controller.Data_Exclusive::total       677916                      
system.ruby.L1Cache_Controller.DataS_fromL1 |          10      0.25%      0.25% |        4018     99.75%    100.00%
system.ruby.L1Cache_Controller.DataS_fromL1::total         4028                      
system.ruby.L1Cache_Controller.Data_all_Acks |      286411     99.98%     99.98% |          52      0.02%    100.00%
system.ruby.L1Cache_Controller.Data_all_Acks::total       286463                      
system.ruby.L1Cache_Controller.L0_Ack    |        1354     20.53%     20.53% |        5242     79.47%    100.00%
system.ruby.L1Cache_Controller.L0_Ack::total         6596                      
system.ruby.L1Cache_Controller.Ack       |          17      0.43%      0.43% |        3969     99.57%    100.00%
system.ruby.L1Cache_Controller.Ack::total         3986                      
system.ruby.L1Cache_Controller.Ack_all   |          17      0.43%      0.43% |        3970     99.57%    100.00%
system.ruby.L1Cache_Controller.Ack_all::total         3987                      
system.ruby.L1Cache_Controller.WB_Ack    |      284507     29.65%     29.65% |      674976     70.35%    100.00%
system.ruby.L1Cache_Controller.WB_Ack::total       959483                      
system.ruby.L1Cache_Controller.NP.Load   |        2888      0.42%      0.42% |      679091     99.58%    100.00%
system.ruby.L1Cache_Controller.NP.Load::total       681979                      
system.ruby.L1Cache_Controller.NP.Store  |      286410     99.99%     99.99% |          19      0.01%    100.00%
system.ruby.L1Cache_Controller.NP.Store::total       286429                      
system.ruby.L1Cache_Controller.NP.Inv    |           0      0.00%      0.00% |           1    100.00%    100.00%
system.ruby.L1Cache_Controller.NP.Inv::total            1                      
system.ruby.L1Cache_Controller.S.Load    |           1     25.00%     25.00% |           3     75.00%    100.00%
system.ruby.L1Cache_Controller.S.Load::total            4                      
system.ruby.L1Cache_Controller.S.Store   |          17      0.43%      0.43% |        3969     99.57%    100.00%
system.ruby.L1Cache_Controller.S.Store::total         3986                      
system.ruby.L1Cache_Controller.S.L0_Invalidate_Own |           0      0.00%      0.00% |          38    100.00%    100.00%
system.ruby.L1Cache_Controller.S.L0_Invalidate_Own::total           38                      
system.ruby.L1Cache_Controller.S.L0_Invalidate_Else |           1     10.00%     10.00% |           9     90.00%    100.00%
system.ruby.L1Cache_Controller.S.L0_Invalidate_Else::total           10                      
system.ruby.L1Cache_Controller.SS.Load   |          14    100.00%    100.00% |           0      0.00%    100.00%
system.ruby.L1Cache_Controller.SS.Load::total           14                      
system.ruby.L1Cache_Controller.SS.Inv    |        3970     99.60%     99.60% |          16      0.40%    100.00%
system.ruby.L1Cache_Controller.SS.Inv::total         3986                      
system.ruby.L1Cache_Controller.SS.L1_Replacement |           0      0.00%      0.00% |          38    100.00%    100.00%
system.ruby.L1Cache_Controller.SS.L1_Replacement::total           38                      
system.ruby.L1Cache_Controller.E.WriteBack |         774      0.12%      0.12% |      664846     99.88%    100.00%
system.ruby.L1Cache_Controller.E.WriteBack::total       665620                      
system.ruby.L1Cache_Controller.E.L0_Invalidate_Own |        1512     12.94%     12.94% |       10172     87.06%    100.00%
system.ruby.L1Cache_Controller.E.L0_Invalidate_Own::total        11684                      
system.ruby.L1Cache_Controller.E.L0_Invalidate_Else |           7     77.78%     77.78% |           2     22.22%    100.00%
system.ruby.L1Cache_Controller.E.L0_Invalidate_Else::total            9                      
system.ruby.L1Cache_Controller.EE.L1_Replacement |        1303     20.27%     20.27% |        5124     79.73%    100.00%
system.ruby.L1Cache_Controller.EE.L1_Replacement::total         6427                      
system.ruby.L1Cache_Controller.EE.Fwd_GETS |           6     85.71%     85.71% |           1     14.29%    100.00%
system.ruby.L1Cache_Controller.EE.Fwd_GETS::total            7                      
system.ruby.L1Cache_Controller.M.WriteBack |      285692     87.34%     87.34% |       41423     12.66%    100.00%
system.ruby.L1Cache_Controller.M.WriteBack::total       327115                      
system.ruby.L1Cache_Controller.M.L0_Invalidate_Own |         257     78.35%     78.35% |          71     21.65%    100.00%
system.ruby.L1Cache_Controller.M.L0_Invalidate_Own::total          328                      
system.ruby.L1Cache_Controller.M.L0_Invalidate_Else |         489     98.79%     98.79% |           6      1.21%    100.00%
system.ruby.L1Cache_Controller.M.L0_Invalidate_Else::total          495                      
system.ruby.L1Cache_Controller.MM.Load   |         108      0.28%      0.28% |       38013     99.72%    100.00%
system.ruby.L1Cache_Controller.MM.Load::total        38121                      
system.ruby.L1Cache_Controller.MM.Store  |           9     90.00%     90.00% |           1     10.00%    100.00%
system.ruby.L1Cache_Controller.MM.Store::total           10                      
system.ruby.L1Cache_Controller.MM.L1_Replacement |      283204     29.72%     29.72% |      669852     70.28%    100.00%
system.ruby.L1Cache_Controller.MM.L1_Replacement::total       953056                      
system.ruby.L1Cache_Controller.MM.Fwd_GETX |           0      0.00%      0.00% |           1    100.00%    100.00%
system.ruby.L1Cache_Controller.MM.Fwd_GETX::total            1                      
system.ruby.L1Cache_Controller.MM.Fwd_GETS |        4012     99.78%     99.78% |           9      0.22%    100.00%
system.ruby.L1Cache_Controller.MM.Fwd_GETS::total         4021                      
system.ruby.L1Cache_Controller.IS.Data_Exclusive |        2877      0.42%      0.42% |      675039     99.58%    100.00%
system.ruby.L1Cache_Controller.IS.Data_Exclusive::total       677916                      
system.ruby.L1Cache_Controller.IS.DataS_fromL1 |          10      0.25%      0.25% |        4018     99.75%    100.00%
system.ruby.L1Cache_Controller.IS.DataS_fromL1::total         4028                      
system.ruby.L1Cache_Controller.IS.Data_all_Acks |           1      2.86%      2.86% |          34     97.14%    100.00%
system.ruby.L1Cache_Controller.IS.Data_all_Acks::total           35                      
system.ruby.L1Cache_Controller.IM.Data   |           0      0.00%      0.00% |           1    100.00%    100.00%
system.ruby.L1Cache_Controller.IM.Data::total            1                      
system.ruby.L1Cache_Controller.IM.Data_all_Acks |      286410     99.99%     99.99% |          18      0.01%    100.00%
system.ruby.L1Cache_Controller.IM.Data_all_Acks::total       286428                      
system.ruby.L1Cache_Controller.SM.Ack    |          17      0.43%      0.43% |        3969     99.57%    100.00%
system.ruby.L1Cache_Controller.SM.Ack::total         3986                      
system.ruby.L1Cache_Controller.SM.Ack_all |          17      0.43%      0.43% |        3970     99.57%    100.00%
system.ruby.L1Cache_Controller.SM.Ack_all::total         3987                      
system.ruby.L1Cache_Controller.M_I.WB_Ack |      284507     29.65%     29.65% |      674976     70.35%    100.00%
system.ruby.L1Cache_Controller.M_I.WB_Ack::total       959483                      
system.ruby.L1Cache_Controller.S_IL0.L0_Invalidate_Own |           0      0.00%      0.00% |          38    100.00%    100.00%
system.ruby.L1Cache_Controller.S_IL0.L0_Invalidate_Own::total           38                      
system.ruby.L1Cache_Controller.S_IL0.L0_Invalidate_Else |           1     10.00%     10.00% |           9     90.00%    100.00%
system.ruby.L1Cache_Controller.S_IL0.L0_Invalidate_Else::total           10                      
system.ruby.L1Cache_Controller.S_IL0.L0_Ack |           1      2.08%      2.08% |          47     97.92%    100.00%
system.ruby.L1Cache_Controller.S_IL0.L0_Ack::total           48                      
system.ruby.L1Cache_Controller.E_IL0.L0_DataAck |         210      3.99%      3.99% |        5049     96.01%    100.00%
system.ruby.L1Cache_Controller.E_IL0.L0_DataAck::total         5259                      
system.ruby.L1Cache_Controller.E_IL0.L0_Invalidate_Own |        1512     12.94%     12.94% |       10172     87.06%    100.00%
system.ruby.L1Cache_Controller.E_IL0.L0_Invalidate_Own::total        11684                      
system.ruby.L1Cache_Controller.E_IL0.L0_Invalidate_Else |           7     77.78%     77.78% |           2     22.22%    100.00%
system.ruby.L1Cache_Controller.E_IL0.L0_Invalidate_Else::total            9                      
system.ruby.L1Cache_Controller.E_IL0.L0_Ack |        1309     20.35%     20.35% |        5125     79.65%    100.00%
system.ruby.L1Cache_Controller.E_IL0.L0_Ack::total         6434                      
system.ruby.L1Cache_Controller.M_IL0.L0_DataAck |         702     99.01%     99.01% |           7      0.99%    100.00%
system.ruby.L1Cache_Controller.M_IL0.L0_DataAck::total          709                      
system.ruby.L1Cache_Controller.M_IL0.L0_Invalidate_Own |         257     78.35%     78.35% |          71     21.65%    100.00%
system.ruby.L1Cache_Controller.M_IL0.L0_Invalidate_Own::total          328                      
system.ruby.L1Cache_Controller.M_IL0.L0_Invalidate_Else |         489     98.79%     98.79% |           6      1.21%    100.00%
system.ruby.L1Cache_Controller.M_IL0.L0_Invalidate_Else::total          495                      
system.ruby.L1Cache_Controller.M_IL0.L0_Ack |          44     38.60%     38.60% |          70     61.40%    100.00%
system.ruby.L1Cache_Controller.M_IL0.L0_Ack::total          114                      
system.ruby.L2Cache_Controller.L1_GETS         681979      0.00%      0.00%
system.ruby.L2Cache_Controller.L1_GETX         286429      0.00%      0.00%
system.ruby.L2Cache_Controller.L1_UPGRADE         3986      0.00%      0.00%
system.ruby.L2Cache_Controller.L1_PUTX         959483      0.00%      0.00%
system.ruby.L2Cache_Controller.Mem_Data        287593      0.00%      0.00%
system.ruby.L2Cache_Controller.WB_Data           4026      0.00%      0.00%
system.ruby.L2Cache_Controller.WB_Data_clean            2      0.00%      0.00%
system.ruby.L2Cache_Controller.Unblock           4028      0.00%      0.00%
system.ruby.L2Cache_Controller.Exclusive_Unblock       968331      0.00%      0.00%
system.ruby.L2Cache_Controller.NP.L1_GETS         1439      0.00%      0.00%
system.ruby.L2Cache_Controller.NP.L1_GETX       286154      0.00%      0.00%
system.ruby.L2Cache_Controller.SS.L1_GETS           33      0.00%      0.00%
system.ruby.L2Cache_Controller.SS.L1_GETX            1      0.00%      0.00%
system.ruby.L2Cache_Controller.SS.L1_UPGRADE         3986      0.00%      0.00%
system.ruby.L2Cache_Controller.M.L1_GETS       676478      0.00%      0.00%
system.ruby.L2Cache_Controller.M.L1_GETX          273      0.00%      0.00%
system.ruby.L2Cache_Controller.MT.L1_GETS         4028      0.00%      0.00%
system.ruby.L2Cache_Controller.MT.L1_GETX            1      0.00%      0.00%
system.ruby.L2Cache_Controller.MT.L1_PUTX       959483      0.00%      0.00%
system.ruby.L2Cache_Controller.ISS.L1_GETS            1      0.00%      0.00%
system.ruby.L2Cache_Controller.ISS.Mem_Data         1438      0.00%      0.00%
system.ruby.L2Cache_Controller.IS.Mem_Data            1      0.00%      0.00%
system.ruby.L2Cache_Controller.IM.Mem_Data       286154      0.00%      0.00%
system.ruby.L2Cache_Controller.SS_MB.Exclusive_Unblock         3987      0.00%      0.00%
system.ruby.L2Cache_Controller.MT_MB.Exclusive_Unblock       964344      0.00%      0.00%
system.ruby.L2Cache_Controller.MT_IIB.WB_Data         4026      0.00%      0.00%
system.ruby.L2Cache_Controller.MT_IIB.WB_Data_clean            2      0.00%      0.00%
system.ruby.L2Cache_Controller.MT_SB.Unblock         4028      0.00%      0.00%

---------- End Simulation Statistics   ----------
