
---------- Begin Simulation Statistics ----------
sim_seconds                                  0.780483                       # Number of seconds simulated
sim_ticks                                780482815500                       # Number of ticks simulated
final_tick                               780482815500                       # Number of ticks from beginning of simulation (restored from checkpoints and never reset)
sim_freq                                 1000000000000                       # Frequency of simulated ticks
host_inst_rate                                 151006                       # Simulator instruction rate (inst/s)
host_op_rate                                   419801                       # Simulator op (including micro ops) rate (op/s)
host_tick_rate                              256359819                       # Simulator tick rate (ticks/s)
host_mem_usage                                 964404                       # Number of bytes of host memory used
host_seconds                                  3044.48                       # Real time elapsed on the host
sim_insts                                   459733817                       # Number of instructions simulated
sim_ops                                    1278075632                       # Number of ops (including micro ops) simulated
system.voltage_domain.voltage                       1                       # Voltage in Volts
system.clk_domain.clock                          1000                       # Clock period in ticks
system.mem_ctrls.bytes_read::ruby.dir_cntrl0     28378368                       # Number of bytes read from this memory
system.mem_ctrls.bytes_read::total           28378368                       # Number of bytes read from this memory
system.mem_ctrls.num_reads::ruby.dir_cntrl0       443412                       # Number of read requests responded to by this memory
system.mem_ctrls.num_reads::total              443412                       # Number of read requests responded to by this memory
system.mem_ctrls.bw_read::ruby.dir_cntrl0     36360016                       # Total read bandwidth from this memory (bytes/s)
system.mem_ctrls.bw_read::total              36360016                       # Total read bandwidth from this memory (bytes/s)
system.mem_ctrls.bw_total::ruby.dir_cntrl0     36360016                       # Total bandwidth to/from this memory (bytes/s)
system.mem_ctrls.bw_total::total             36360016                       # Total bandwidth to/from this memory (bytes/s)
system.mem_ctrls.readReqs                      443412                       # Number of read requests accepted
system.mem_ctrls.writeReqs                          0                       # Number of write requests accepted
system.mem_ctrls.readBursts                    443412                       # Number of DRAM read bursts, including those serviced by the write queue
system.mem_ctrls.writeBursts                        0                       # Number of DRAM write bursts, including those merged in the write queue
system.mem_ctrls.bytesReadDRAM               28378368                       # Total number of bytes read from DRAM
system.mem_ctrls.bytesReadWrQ                       0                       # Total number of bytes read from write queue
system.mem_ctrls.bytesWritten                       0                       # Total number of bytes written to DRAM
system.mem_ctrls.bytesReadSys                28378368                       # Total read bytes from the system interface side
system.mem_ctrls.bytesWrittenSys                    0                       # Total written bytes from the system interface side
system.mem_ctrls.servicedByWrQ                      0                       # Number of DRAM read bursts serviced by the write queue
system.mem_ctrls.mergedWrBursts                     0                       # Number of DRAM write bursts merged with an existing one
system.mem_ctrls.neitherReadNorWriteReqs            0                       # Number of requests that are neither read nor write
system.mem_ctrls.perBankRdBursts::0             27621                       # Per bank write bursts
system.mem_ctrls.perBankRdBursts::1             27665                       # Per bank write bursts
system.mem_ctrls.perBankRdBursts::2             27583                       # Per bank write bursts
system.mem_ctrls.perBankRdBursts::3             27509                       # Per bank write bursts
system.mem_ctrls.perBankRdBursts::4             27634                       # Per bank write bursts
system.mem_ctrls.perBankRdBursts::5             27462                       # Per bank write bursts
system.mem_ctrls.perBankRdBursts::6             27746                       # Per bank write bursts
system.mem_ctrls.perBankRdBursts::7             27764                       # Per bank write bursts
system.mem_ctrls.perBankRdBursts::8             27671                       # Per bank write bursts
system.mem_ctrls.perBankRdBursts::9             27915                       # Per bank write bursts
system.mem_ctrls.perBankRdBursts::10            27906                       # Per bank write bursts
system.mem_ctrls.perBankRdBursts::11            28040                       # Per bank write bursts
system.mem_ctrls.perBankRdBursts::12            27866                       # Per bank write bursts
system.mem_ctrls.perBankRdBursts::13            27843                       # Per bank write bursts
system.mem_ctrls.perBankRdBursts::14            27614                       # Per bank write bursts
system.mem_ctrls.perBankRdBursts::15            27573                       # Per bank write bursts
system.mem_ctrls.perBankWrBursts::0                 0                       # Per bank write bursts
system.mem_ctrls.perBankWrBursts::1                 0                       # Per bank write bursts
system.mem_ctrls.perBankWrBursts::2                 0                       # Per bank write bursts
system.mem_ctrls.perBankWrBursts::3                 0                       # Per bank write bursts
system.mem_ctrls.perBankWrBursts::4                 0                       # Per bank write bursts
system.mem_ctrls.perBankWrBursts::5                 0                       # Per bank write bursts
system.mem_ctrls.perBankWrBursts::6                 0                       # Per bank write bursts
system.mem_ctrls.perBankWrBursts::7                 0                       # Per bank write bursts
system.mem_ctrls.perBankWrBursts::8                 0                       # Per bank write bursts
system.mem_ctrls.perBankWrBursts::9                 0                       # Per bank write bursts
system.mem_ctrls.perBankWrBursts::10                0                       # Per bank write bursts
system.mem_ctrls.perBankWrBursts::11                0                       # Per bank write bursts
system.mem_ctrls.perBankWrBursts::12                0                       # Per bank write bursts
system.mem_ctrls.perBankWrBursts::13                0                       # Per bank write bursts
system.mem_ctrls.perBankWrBursts::14                0                       # Per bank write bursts
system.mem_ctrls.perBankWrBursts::15                0                       # Per bank write bursts
system.mem_ctrls.numRdRetry                         0                       # Number of times read queue was full causing retry
system.mem_ctrls.numWrRetry                         0                       # Number of times write queue was full causing retry
system.mem_ctrls.totGap                  780482735000                       # Total gap between requests
system.mem_ctrls.readPktSize::0                     0                       # Read request sizes (log2)
system.mem_ctrls.readPktSize::1                     0                       # Read request sizes (log2)
system.mem_ctrls.readPktSize::2                     0                       # Read request sizes (log2)
system.mem_ctrls.readPktSize::3                     0                       # Read request sizes (log2)
system.mem_ctrls.readPktSize::4                     0                       # Read request sizes (log2)
system.mem_ctrls.readPktSize::5                     0                       # Read request sizes (log2)
system.mem_ctrls.readPktSize::6                443412                       # Read request sizes (log2)
system.mem_ctrls.writePktSize::0                    0                       # Write request sizes (log2)
system.mem_ctrls.writePktSize::1                    0                       # Write request sizes (log2)
system.mem_ctrls.writePktSize::2                    0                       # Write request sizes (log2)
system.mem_ctrls.writePktSize::3                    0                       # Write request sizes (log2)
system.mem_ctrls.writePktSize::4                    0                       # Write request sizes (log2)
system.mem_ctrls.writePktSize::5                    0                       # Write request sizes (log2)
system.mem_ctrls.writePktSize::6                    0                       # Write request sizes (log2)
system.mem_ctrls.rdQLenPdf::0                  443403                       # What read queue length does an incoming req see
system.mem_ctrls.rdQLenPdf::1                       9                       # What read queue length does an incoming req see
system.mem_ctrls.rdQLenPdf::2                       0                       # What read queue length does an incoming req see
system.mem_ctrls.rdQLenPdf::3                       0                       # What read queue length does an incoming req see
system.mem_ctrls.rdQLenPdf::4                       0                       # What read queue length does an incoming req see
system.mem_ctrls.rdQLenPdf::5                       0                       # What read queue length does an incoming req see
system.mem_ctrls.rdQLenPdf::6                       0                       # What read queue length does an incoming req see
system.mem_ctrls.rdQLenPdf::7                       0                       # What read queue length does an incoming req see
system.mem_ctrls.rdQLenPdf::8                       0                       # What read queue length does an incoming req see
system.mem_ctrls.rdQLenPdf::9                       0                       # What read queue length does an incoming req see
system.mem_ctrls.rdQLenPdf::10                      0                       # What read queue length does an incoming req see
system.mem_ctrls.rdQLenPdf::11                      0                       # What read queue length does an incoming req see
system.mem_ctrls.rdQLenPdf::12                      0                       # What read queue length does an incoming req see
system.mem_ctrls.rdQLenPdf::13                      0                       # What read queue length does an incoming req see
system.mem_ctrls.rdQLenPdf::14                      0                       # What read queue length does an incoming req see
system.mem_ctrls.rdQLenPdf::15                      0                       # What read queue length does an incoming req see
system.mem_ctrls.rdQLenPdf::16                      0                       # What read queue length does an incoming req see
system.mem_ctrls.rdQLenPdf::17                      0                       # What read queue length does an incoming req see
system.mem_ctrls.rdQLenPdf::18                      0                       # What read queue length does an incoming req see
system.mem_ctrls.rdQLenPdf::19                      0                       # What read queue length does an incoming req see
system.mem_ctrls.rdQLenPdf::20                      0                       # What read queue length does an incoming req see
system.mem_ctrls.rdQLenPdf::21                      0                       # What read queue length does an incoming req see
system.mem_ctrls.rdQLenPdf::22                      0                       # What read queue length does an incoming req see
system.mem_ctrls.rdQLenPdf::23                      0                       # What read queue length does an incoming req see
system.mem_ctrls.rdQLenPdf::24                      0                       # What read queue length does an incoming req see
system.mem_ctrls.rdQLenPdf::25                      0                       # What read queue length does an incoming req see
system.mem_ctrls.rdQLenPdf::26                      0                       # What read queue length does an incoming req see
system.mem_ctrls.rdQLenPdf::27                      0                       # What read queue length does an incoming req see
system.mem_ctrls.rdQLenPdf::28                      0                       # What read queue length does an incoming req see
system.mem_ctrls.rdQLenPdf::29                      0                       # What read queue length does an incoming req see
system.mem_ctrls.rdQLenPdf::30                      0                       # What read queue length does an incoming req see
system.mem_ctrls.rdQLenPdf::31                      0                       # What read queue length does an incoming req see
system.mem_ctrls.wrQLenPdf::0                       0                       # What write queue length does an incoming req see
system.mem_ctrls.wrQLenPdf::1                       0                       # What write queue length does an incoming req see
system.mem_ctrls.wrQLenPdf::2                       0                       # What write queue length does an incoming req see
system.mem_ctrls.wrQLenPdf::3                       0                       # What write queue length does an incoming req see
system.mem_ctrls.wrQLenPdf::4                       0                       # What write queue length does an incoming req see
system.mem_ctrls.wrQLenPdf::5                       0                       # What write queue length does an incoming req see
system.mem_ctrls.wrQLenPdf::6                       0                       # What write queue length does an incoming req see
system.mem_ctrls.wrQLenPdf::7                       0                       # What write queue length does an incoming req see
system.mem_ctrls.wrQLenPdf::8                       0                       # What write queue length does an incoming req see
system.mem_ctrls.wrQLenPdf::9                       0                       # What write queue length does an incoming req see
system.mem_ctrls.wrQLenPdf::10                      0                       # What write queue length does an incoming req see
system.mem_ctrls.wrQLenPdf::11                      0                       # What write queue length does an incoming req see
system.mem_ctrls.wrQLenPdf::12                      0                       # What write queue length does an incoming req see
system.mem_ctrls.wrQLenPdf::13                      0                       # What write queue length does an incoming req see
system.mem_ctrls.wrQLenPdf::14                      0                       # What write queue length does an incoming req see
system.mem_ctrls.wrQLenPdf::15                      0                       # What write queue length does an incoming req see
system.mem_ctrls.wrQLenPdf::16                      0                       # What write queue length does an incoming req see
system.mem_ctrls.wrQLenPdf::17                      0                       # What write queue length does an incoming req see
system.mem_ctrls.wrQLenPdf::18                      0                       # What write queue length does an incoming req see
system.mem_ctrls.wrQLenPdf::19                      0                       # What write queue length does an incoming req see
system.mem_ctrls.wrQLenPdf::20                      0                       # What write queue length does an incoming req see
system.mem_ctrls.wrQLenPdf::21                      0                       # What write queue length does an incoming req see
system.mem_ctrls.wrQLenPdf::22                      0                       # What write queue length does an incoming req see
system.mem_ctrls.wrQLenPdf::23                      0                       # What write queue length does an incoming req see
system.mem_ctrls.wrQLenPdf::24                      0                       # What write queue length does an incoming req see
system.mem_ctrls.wrQLenPdf::25                      0                       # What write queue length does an incoming req see
system.mem_ctrls.wrQLenPdf::26                      0                       # What write queue length does an incoming req see
system.mem_ctrls.wrQLenPdf::27                      0                       # What write queue length does an incoming req see
system.mem_ctrls.wrQLenPdf::28                      0                       # What write queue length does an incoming req see
system.mem_ctrls.wrQLenPdf::29                      0                       # What write queue length does an incoming req see
system.mem_ctrls.wrQLenPdf::30                      0                       # What write queue length does an incoming req see
system.mem_ctrls.wrQLenPdf::31                      0                       # What write queue length does an incoming req see
system.mem_ctrls.wrQLenPdf::32                      0                       # What write queue length does an incoming req see
system.mem_ctrls.wrQLenPdf::33                      0                       # What write queue length does an incoming req see
system.mem_ctrls.wrQLenPdf::34                      0                       # What write queue length does an incoming req see
system.mem_ctrls.wrQLenPdf::35                      0                       # What write queue length does an incoming req see
system.mem_ctrls.wrQLenPdf::36                      0                       # What write queue length does an incoming req see
system.mem_ctrls.wrQLenPdf::37                      0                       # What write queue length does an incoming req see
system.mem_ctrls.wrQLenPdf::38                      0                       # What write queue length does an incoming req see
system.mem_ctrls.wrQLenPdf::39                      0                       # What write queue length does an incoming req see
system.mem_ctrls.wrQLenPdf::40                      0                       # What write queue length does an incoming req see
system.mem_ctrls.wrQLenPdf::41                      0                       # What write queue length does an incoming req see
system.mem_ctrls.wrQLenPdf::42                      0                       # What write queue length does an incoming req see
system.mem_ctrls.wrQLenPdf::43                      0                       # What write queue length does an incoming req see
system.mem_ctrls.wrQLenPdf::44                      0                       # What write queue length does an incoming req see
system.mem_ctrls.wrQLenPdf::45                      0                       # What write queue length does an incoming req see
system.mem_ctrls.wrQLenPdf::46                      0                       # What write queue length does an incoming req see
system.mem_ctrls.wrQLenPdf::47                      0                       # What write queue length does an incoming req see
system.mem_ctrls.wrQLenPdf::48                      0                       # What write queue length does an incoming req see
system.mem_ctrls.wrQLenPdf::49                      0                       # What write queue length does an incoming req see
system.mem_ctrls.wrQLenPdf::50                      0                       # What write queue length does an incoming req see
system.mem_ctrls.wrQLenPdf::51                      0                       # What write queue length does an incoming req see
system.mem_ctrls.wrQLenPdf::52                      0                       # What write queue length does an incoming req see
system.mem_ctrls.wrQLenPdf::53                      0                       # What write queue length does an incoming req see
system.mem_ctrls.wrQLenPdf::54                      0                       # What write queue length does an incoming req see
system.mem_ctrls.wrQLenPdf::55                      0                       # What write queue length does an incoming req see
system.mem_ctrls.wrQLenPdf::56                      0                       # What write queue length does an incoming req see
system.mem_ctrls.wrQLenPdf::57                      0                       # What write queue length does an incoming req see
system.mem_ctrls.wrQLenPdf::58                      0                       # What write queue length does an incoming req see
system.mem_ctrls.wrQLenPdf::59                      0                       # What write queue length does an incoming req see
system.mem_ctrls.wrQLenPdf::60                      0                       # What write queue length does an incoming req see
system.mem_ctrls.wrQLenPdf::61                      0                       # What write queue length does an incoming req see
system.mem_ctrls.wrQLenPdf::62                      0                       # What write queue length does an incoming req see
system.mem_ctrls.wrQLenPdf::63                      0                       # What write queue length does an incoming req see
system.mem_ctrls.bytesPerActivate::samples        71964                       # Bytes accessed per row activation
system.mem_ctrls.bytesPerActivate::mean    394.309155                       # Bytes accessed per row activation
system.mem_ctrls.bytesPerActivate::gmean   335.158384                       # Bytes accessed per row activation
system.mem_ctrls.bytesPerActivate::stdev   232.538865                       # Bytes accessed per row activation
system.mem_ctrls.bytesPerActivate::0-127         2675      3.72%      3.72% # Bytes accessed per row activation
system.mem_ctrls.bytesPerActivate::128-255         3309      4.60%      8.32% # Bytes accessed per row activation
system.mem_ctrls.bytesPerActivate::256-383        40962     56.92%     65.24% # Bytes accessed per row activation
system.mem_ctrls.bytesPerActivate::384-511         5263      7.31%     72.55% # Bytes accessed per row activation
system.mem_ctrls.bytesPerActivate::512-639         5862      8.15%     80.69% # Bytes accessed per row activation
system.mem_ctrls.bytesPerActivate::640-767         5203      7.23%     87.92% # Bytes accessed per row activation
system.mem_ctrls.bytesPerActivate::768-895         4073      5.66%     93.58% # Bytes accessed per row activation
system.mem_ctrls.bytesPerActivate::896-1023         2719      3.78%     97.36% # Bytes accessed per row activation
system.mem_ctrls.bytesPerActivate::1024-1151         1898      2.64%    100.00% # Bytes accessed per row activation
system.mem_ctrls.bytesPerActivate::total        71964                       # Bytes accessed per row activation
system.mem_ctrls.totQLat                   3655315748                       # Total ticks spent queuing
system.mem_ctrls.totMemAccLat             11969290748                       # Total ticks spent from burst creation until serviced by the DRAM
system.mem_ctrls.totBusLat                 2217060000                       # Total ticks spent in databus transfers
system.mem_ctrls.avgQLat                      8243.61                       # Average queueing delay per DRAM burst
system.mem_ctrls.avgBusLat                    5000.00                       # Average bus latency per DRAM burst
system.mem_ctrls.avgMemAccLat                26993.61                       # Average memory access latency per DRAM burst
system.mem_ctrls.avgRdBW                        36.36                       # Average DRAM read bandwidth in MiByte/s
system.mem_ctrls.avgWrBW                         0.00                       # Average achieved write bandwidth in MiByte/s
system.mem_ctrls.avgRdBWSys                     36.36                       # Average system read bandwidth in MiByte/s
system.mem_ctrls.avgWrBWSys                      0.00                       # Average system write bandwidth in MiByte/s
system.mem_ctrls.peakBW                      12800.00                       # Theoretical peak bandwidth in MiByte/s
system.mem_ctrls.busUtil                         0.28                       # Data bus utilization in percentage
system.mem_ctrls.busUtilRead                     0.28                       # Data bus utilization in percentage for reads
system.mem_ctrls.busUtilWrite                    0.00                       # Data bus utilization in percentage for writes
system.mem_ctrls.avgRdQLen                       1.00                       # Average read queue length when enqueuing
system.mem_ctrls.avgWrQLen                       0.00                       # Average write queue length when enqueuing
system.mem_ctrls.readRowHits                   371437                       # Number of row buffer hits during reads
system.mem_ctrls.writeRowHits                       0                       # Number of row buffer hits during writes
system.mem_ctrls.readRowHitRate                 83.77                       # Row buffer hit rate for reads
system.mem_ctrls.writeRowHitRate                  nan                       # Row buffer hit rate for writes
system.mem_ctrls.avgGap                    1760175.04                       # Average gap between requests
system.mem_ctrls.pageHitRate                    83.77                       # Row buffer hit rate, read and write combined
system.mem_ctrls_0.actEnergy                271048680                       # Energy for activate commands per rank (pJ)
system.mem_ctrls_0.preEnergy                147893625                       # Energy for precharge commands per rank (pJ)
system.mem_ctrls_0.readEnergy              1723511400                       # Energy for read commands per rank (pJ)
system.mem_ctrls_0.writeEnergy                      0                       # Energy for write commands per rank (pJ)
system.mem_ctrls_0.refreshEnergy          50977037280                       # Energy for refresh commands per rank (pJ)
system.mem_ctrls_0.actBackEnergy         174768064515                       # Energy for active background per rank (pJ)
system.mem_ctrls_0.preBackEnergy         314981712750                       # Energy for precharge background per rank (pJ)
system.mem_ctrls_0.totalEnergy           542869268250                       # Total energy per rank (pJ)
system.mem_ctrls_0.averagePower            695.559643                       # Core power per rank (mW)
system.mem_ctrls_0.memoryStateTime::IDLE 523107437250                       # Time in different power states
system.mem_ctrls_0.memoryStateTime::REF   26061880000                       # Time in different power states
system.mem_ctrls_0.memoryStateTime::PRE_PDN            0                       # Time in different power states
system.mem_ctrls_0.memoryStateTime::ACT  231309084000                       # Time in different power states
system.mem_ctrls_0.memoryStateTime::ACT_PDN            0                       # Time in different power states
system.mem_ctrls_1.actEnergy                272976480                       # Energy for activate commands per rank (pJ)
system.mem_ctrls_1.preEnergy                148945500                       # Energy for precharge commands per rank (pJ)
system.mem_ctrls_1.readEnergy              1734774600                       # Energy for read commands per rank (pJ)
system.mem_ctrls_1.writeEnergy                      0                       # Energy for write commands per rank (pJ)
system.mem_ctrls_1.refreshEnergy          50977037280                       # Energy for refresh commands per rank (pJ)
system.mem_ctrls_1.actBackEnergy         175657939110                       # Energy for active background per rank (pJ)
system.mem_ctrls_1.preBackEnergy         314201112750                       # Energy for precharge background per rank (pJ)
system.mem_ctrls_1.totalEnergy           542992785720                       # Total energy per rank (pJ)
system.mem_ctrls_1.averagePower            695.717914                       # Core power per rank (mW)
system.mem_ctrls_1.memoryStateTime::IDLE 521805917250                       # Time in different power states
system.mem_ctrls_1.memoryStateTime::REF   26061880000                       # Time in different power states
system.mem_ctrls_1.memoryStateTime::PRE_PDN            0                       # Time in different power states
system.mem_ctrls_1.memoryStateTime::ACT  232612752750                       # Time in different power states
system.mem_ctrls_1.memoryStateTime::ACT_PDN            0                       # Time in different power states
system.cpu_voltage_domain.voltage                   1                       # Voltage in Volts
system.cpu_clk_domain.clock                       500                       # Clock period in ticks
system.cpu0.apic_clk_domain.clock                8000                       # Clock period in ticks
system.cpu0.workload.num_syscalls                  98                       # Number of system calls
system.cpu0.numCycles                      1560965631                       # number of cpu cycles simulated
system.cpu0.numWorkItemsStarted                     0                       # number of work items this cpu started
system.cpu0.numWorkItemsCompleted                   0                       # number of work items this cpu completed
system.cpu0.committedInsts                  430698485                       # Number of instructions committed
system.cpu0.committedOps                   1220008118                       # Number of ops (including micro ops) committed
system.cpu0.num_int_alu_accesses           1151527429                       # Number of integer alu accesses
system.cpu0.num_fp_alu_accesses              29078646                       # Number of float alu accesses
system.cpu0.num_func_calls                   40775428                       # number of times a function call or return occured
system.cpu0.num_conditional_control_insts     94807402                       # number of instructions that are conditional controls
system.cpu0.num_int_insts                  1151527429                       # number of integer instructions
system.cpu0.num_fp_insts                     29078646                       # number of float instructions
system.cpu0.num_int_register_reads         2427616239                       # number of times the integer registers were read
system.cpu0.num_int_register_writes        1144604424                       # number of times the integer registers were written
system.cpu0.num_fp_register_reads            46730726                       # number of times the floating registers were read
system.cpu0.num_fp_register_writes           22854198                       # number of times the floating registers were written
system.cpu0.num_cc_register_reads           974785936                       # number of times the CC registers were read
system.cpu0.num_cc_register_writes          365199745                       # number of times the CC registers were written
system.cpu0.num_mem_refs                    188608406                       # number of memory refs
system.cpu0.num_load_insts                  114917511                       # Number of load instructions
system.cpu0.num_store_insts                  73690895                       # Number of store instructions
system.cpu0.num_idle_cycles                  0.002000                       # Number of idle cycles
system.cpu0.num_busy_cycles              1560965630.998000                       # Number of busy cycles
system.cpu0.not_idle_fraction                1.000000                       # Percentage of non-idle cycles
system.cpu0.idle_fraction                    0.000000                       # Percentage of idle cycles
system.cpu0.Branches                        155130518                       # Number of branches fetched
system.cpu0.op_class::No_OpClass             23648492      1.94%      1.94% # Class of executed instruction
system.cpu0.op_class::IntAlu                883079750     72.38%     74.32% # Class of executed instruction
system.cpu0.op_class::IntMult                     342      0.00%     74.32% # Class of executed instruction
system.cpu0.op_class::IntDiv                101817707      8.35%     82.67% # Class of executed instruction
system.cpu0.op_class::FloatAdd               22853421      1.87%     84.54% # Class of executed instruction
system.cpu0.op_class::FloatCmp                      0      0.00%     84.54% # Class of executed instruction
system.cpu0.op_class::FloatCvt                      0      0.00%     84.54% # Class of executed instruction
system.cpu0.op_class::FloatMult                     0      0.00%     84.54% # Class of executed instruction
system.cpu0.op_class::FloatDiv                      0      0.00%     84.54% # Class of executed instruction
system.cpu0.op_class::FloatSqrt                     0      0.00%     84.54% # Class of executed instruction
system.cpu0.op_class::SimdAdd                       0      0.00%     84.54% # Class of executed instruction
system.cpu0.op_class::SimdAddAcc                    0      0.00%     84.54% # Class of executed instruction
system.cpu0.op_class::SimdAlu                       0      0.00%     84.54% # Class of executed instruction
system.cpu0.op_class::SimdCmp                       0      0.00%     84.54% # Class of executed instruction
system.cpu0.op_class::SimdCvt                       0      0.00%     84.54% # Class of executed instruction
system.cpu0.op_class::SimdMisc                      0      0.00%     84.54% # Class of executed instruction
system.cpu0.op_class::SimdMult                      0      0.00%     84.54% # Class of executed instruction
system.cpu0.op_class::SimdMultAcc                   0      0.00%     84.54% # Class of executed instruction
system.cpu0.op_class::SimdShift                     0      0.00%     84.54% # Class of executed instruction
system.cpu0.op_class::SimdShiftAcc                  0      0.00%     84.54% # Class of executed instruction
system.cpu0.op_class::SimdSqrt                      0      0.00%     84.54% # Class of executed instruction
system.cpu0.op_class::SimdFloatAdd                  0      0.00%     84.54% # Class of executed instruction
system.cpu0.op_class::SimdFloatAlu                  0      0.00%     84.54% # Class of executed instruction
system.cpu0.op_class::SimdFloatCmp                  0      0.00%     84.54% # Class of executed instruction
system.cpu0.op_class::SimdFloatCvt                  0      0.00%     84.54% # Class of executed instruction
system.cpu0.op_class::SimdFloatDiv                  0      0.00%     84.54% # Class of executed instruction
system.cpu0.op_class::SimdFloatMisc                 0      0.00%     84.54% # Class of executed instruction
system.cpu0.op_class::SimdFloatMult                 0      0.00%     84.54% # Class of executed instruction
system.cpu0.op_class::SimdFloatMultAcc              0      0.00%     84.54% # Class of executed instruction
system.cpu0.op_class::SimdFloatSqrt                 0      0.00%     84.54% # Class of executed instruction
system.cpu0.op_class::MemRead               114917511      9.42%     93.96% # Class of executed instruction
system.cpu0.op_class::MemWrite               73690895      6.04%    100.00% # Class of executed instruction
system.cpu0.op_class::IprAccess                     0      0.00%    100.00% # Class of executed instruction
system.cpu0.op_class::InstPrefetch                  0      0.00%    100.00% # Class of executed instruction
system.cpu0.op_class::total                1220008118                       # Class of executed instruction
system.cpu1.apic_clk_domain.clock                8000                       # Clock period in ticks
system.cpu1.numCycles                      1560734251                       # number of cpu cycles simulated
system.cpu1.numWorkItemsStarted                     0                       # number of work items this cpu started
system.cpu1.numWorkItemsCompleted                   0                       # number of work items this cpu completed
system.cpu1.committedInsts                   14517666                       # Number of instructions committed
system.cpu1.committedOps                     29033757                       # Number of ops (including micro ops) committed
system.cpu1.num_int_alu_accesses             21791557                       # Number of integer alu accesses
system.cpu1.num_fp_alu_accesses              14221533                       # Number of float alu accesses
system.cpu1.num_func_calls                      40491                       # number of times a function call or return occured
system.cpu1.num_conditional_control_insts      1783388                       # number of instructions that are conditional controls
system.cpu1.num_int_insts                    21791557                       # number of integer instructions
system.cpu1.num_fp_insts                     14221533                       # number of float instructions
system.cpu1.num_int_register_reads           38295436                       # number of times the integer registers were read
system.cpu1.num_int_register_writes          13006896                       # number of times the integer registers were written
system.cpu1.num_fp_register_reads            21544607                       # number of times the floating registers were read
system.cpu1.num_fp_register_writes           14201308                       # number of times the floating registers were written
system.cpu1.num_cc_register_reads            10720594                       # number of times the CC registers were read
system.cpu1.num_cc_register_writes           10714260                       # number of times the CC registers were written
system.cpu1.num_mem_refs                      7083855                       # number of memory refs
system.cpu1.num_load_insts                    7043298                       # Number of load instructions
system.cpu1.num_store_insts                     40557                       # Number of store instructions
system.cpu1.num_idle_cycles              1500109904.603996                       # Number of idle cycles
system.cpu1.num_busy_cycles              60624346.396004                       # Number of busy cycles
system.cpu1.not_idle_fraction                0.038843                       # Percentage of non-idle cycles
system.cpu1.idle_fraction                    0.961157                       # Percentage of idle cycles
system.cpu1.Branches                          1845678                       # Number of branches fetched
system.cpu1.op_class::No_OpClass                    2      0.00%      0.00% # Class of executed instruction
system.cpu1.op_class::IntAlu                 14647016     50.45%     50.45% # Class of executed instruction
system.cpu1.op_class::IntMult                   60671      0.21%     50.66% # Class of executed instruction
system.cpu1.op_class::IntDiv                       14      0.00%     50.66% # Class of executed instruction
system.cpu1.op_class::FloatAdd                7242199     24.94%     75.60% # Class of executed instruction
system.cpu1.op_class::FloatCmp                      0      0.00%     75.60% # Class of executed instruction
system.cpu1.op_class::FloatCvt                      0      0.00%     75.60% # Class of executed instruction
system.cpu1.op_class::FloatMult                     0      0.00%     75.60% # Class of executed instruction
system.cpu1.op_class::FloatDiv                      0      0.00%     75.60% # Class of executed instruction
system.cpu1.op_class::FloatSqrt                     0      0.00%     75.60% # Class of executed instruction
system.cpu1.op_class::SimdAdd                       0      0.00%     75.60% # Class of executed instruction
system.cpu1.op_class::SimdAddAcc                    0      0.00%     75.60% # Class of executed instruction
system.cpu1.op_class::SimdAlu                       0      0.00%     75.60% # Class of executed instruction
system.cpu1.op_class::SimdCmp                       0      0.00%     75.60% # Class of executed instruction
system.cpu1.op_class::SimdCvt                       0      0.00%     75.60% # Class of executed instruction
system.cpu1.op_class::SimdMisc                      0      0.00%     75.60% # Class of executed instruction
system.cpu1.op_class::SimdMult                      0      0.00%     75.60% # Class of executed instruction
system.cpu1.op_class::SimdMultAcc                   0      0.00%     75.60% # Class of executed instruction
system.cpu1.op_class::SimdShift                     0      0.00%     75.60% # Class of executed instruction
system.cpu1.op_class::SimdShiftAcc                  0      0.00%     75.60% # Class of executed instruction
system.cpu1.op_class::SimdSqrt                      0      0.00%     75.60% # Class of executed instruction
system.cpu1.op_class::SimdFloatAdd                  0      0.00%     75.60% # Class of executed instruction
system.cpu1.op_class::SimdFloatAlu                  0      0.00%     75.60% # Class of executed instruction
system.cpu1.op_class::SimdFloatCmp                  0      0.00%     75.60% # Class of executed instruction
system.cpu1.op_class::SimdFloatCvt                  0      0.00%     75.60% # Class of executed instruction
system.cpu1.op_class::SimdFloatDiv                  0      0.00%     75.60% # Class of executed instruction
system.cpu1.op_class::SimdFloatMisc                 0      0.00%     75.60% # Class of executed instruction
system.cpu1.op_class::SimdFloatMult                 0      0.00%     75.60% # Class of executed instruction
system.cpu1.op_class::SimdFloatMultAcc              0      0.00%     75.60% # Class of executed instruction
system.cpu1.op_class::SimdFloatSqrt                 0      0.00%     75.60% # Class of executed instruction
system.cpu1.op_class::MemRead                 7043298     24.26%     99.86% # Class of executed instruction
system.cpu1.op_class::MemWrite                  40557      0.14%    100.00% # Class of executed instruction
system.cpu1.op_class::IprAccess                     0      0.00%    100.00% # Class of executed instruction
system.cpu1.op_class::InstPrefetch                  0      0.00%    100.00% # Class of executed instruction
system.cpu1.op_class::total                  29033757                       # Class of executed instruction
system.cpu2.apic_clk_domain.clock                8000                       # Clock period in ticks
system.cpu2.numCycles                      1559617081                       # number of cpu cycles simulated
system.cpu2.numWorkItemsStarted                     0                       # number of work items this cpu started
system.cpu2.numWorkItemsCompleted                   0                       # number of work items this cpu completed
system.cpu2.committedInsts                   14517666                       # Number of instructions committed
system.cpu2.committedOps                     29033757                       # Number of ops (including micro ops) committed
system.cpu2.num_int_alu_accesses             21791557                       # Number of integer alu accesses
system.cpu2.num_fp_alu_accesses              14221533                       # Number of float alu accesses
system.cpu2.num_func_calls                      40491                       # number of times a function call or return occured
system.cpu2.num_conditional_control_insts      1783388                       # number of instructions that are conditional controls
system.cpu2.num_int_insts                    21791557                       # number of integer instructions
system.cpu2.num_fp_insts                     14221533                       # number of float instructions
system.cpu2.num_int_register_reads           38295436                       # number of times the integer registers were read
system.cpu2.num_int_register_writes          13006896                       # number of times the integer registers were written
system.cpu2.num_fp_register_reads            21544607                       # number of times the floating registers were read
system.cpu2.num_fp_register_writes           14201308                       # number of times the floating registers were written
system.cpu2.num_cc_register_reads            10720594                       # number of times the CC registers were read
system.cpu2.num_cc_register_writes           10714260                       # number of times the CC registers were written
system.cpu2.num_mem_refs                      7083855                       # number of memory refs
system.cpu2.num_load_insts                    7043298                       # Number of load instructions
system.cpu2.num_store_insts                     40557                       # Number of store instructions
system.cpu2.num_idle_cycles              1500153053.604268                       # Number of idle cycles
system.cpu2.num_busy_cycles              59464027.395732                       # Number of busy cycles
system.cpu2.not_idle_fraction                0.038127                       # Percentage of non-idle cycles
system.cpu2.idle_fraction                    0.961873                       # Percentage of idle cycles
system.cpu2.Branches                          1845678                       # Number of branches fetched
system.cpu2.op_class::No_OpClass                    2      0.00%      0.00% # Class of executed instruction
system.cpu2.op_class::IntAlu                 14647016     50.45%     50.45% # Class of executed instruction
system.cpu2.op_class::IntMult                   60671      0.21%     50.66% # Class of executed instruction
system.cpu2.op_class::IntDiv                       14      0.00%     50.66% # Class of executed instruction
system.cpu2.op_class::FloatAdd                7242199     24.94%     75.60% # Class of executed instruction
system.cpu2.op_class::FloatCmp                      0      0.00%     75.60% # Class of executed instruction
system.cpu2.op_class::FloatCvt                      0      0.00%     75.60% # Class of executed instruction
system.cpu2.op_class::FloatMult                     0      0.00%     75.60% # Class of executed instruction
system.cpu2.op_class::FloatDiv                      0      0.00%     75.60% # Class of executed instruction
system.cpu2.op_class::FloatSqrt                     0      0.00%     75.60% # Class of executed instruction
system.cpu2.op_class::SimdAdd                       0      0.00%     75.60% # Class of executed instruction
system.cpu2.op_class::SimdAddAcc                    0      0.00%     75.60% # Class of executed instruction
system.cpu2.op_class::SimdAlu                       0      0.00%     75.60% # Class of executed instruction
system.cpu2.op_class::SimdCmp                       0      0.00%     75.60% # Class of executed instruction
system.cpu2.op_class::SimdCvt                       0      0.00%     75.60% # Class of executed instruction
system.cpu2.op_class::SimdMisc                      0      0.00%     75.60% # Class of executed instruction
system.cpu2.op_class::SimdMult                      0      0.00%     75.60% # Class of executed instruction
system.cpu2.op_class::SimdMultAcc                   0      0.00%     75.60% # Class of executed instruction
system.cpu2.op_class::SimdShift                     0      0.00%     75.60% # Class of executed instruction
system.cpu2.op_class::SimdShiftAcc                  0      0.00%     75.60% # Class of executed instruction
system.cpu2.op_class::SimdSqrt                      0      0.00%     75.60% # Class of executed instruction
system.cpu2.op_class::SimdFloatAdd                  0      0.00%     75.60% # Class of executed instruction
system.cpu2.op_class::SimdFloatAlu                  0      0.00%     75.60% # Class of executed instruction
system.cpu2.op_class::SimdFloatCmp                  0      0.00%     75.60% # Class of executed instruction
system.cpu2.op_class::SimdFloatCvt                  0      0.00%     75.60% # Class of executed instruction
system.cpu2.op_class::SimdFloatDiv                  0      0.00%     75.60% # Class of executed instruction
system.cpu2.op_class::SimdFloatMisc                 0      0.00%     75.60% # Class of executed instruction
system.cpu2.op_class::SimdFloatMult                 0      0.00%     75.60% # Class of executed instruction
system.cpu2.op_class::SimdFloatMultAcc              0      0.00%     75.60% # Class of executed instruction
system.cpu2.op_class::SimdFloatSqrt                 0      0.00%     75.60% # Class of executed instruction
system.cpu2.op_class::MemRead                 7043298     24.26%     99.86% # Class of executed instruction
system.cpu2.op_class::MemWrite                  40557      0.14%    100.00% # Class of executed instruction
system.cpu2.op_class::IprAccess                     0      0.00%    100.00% # Class of executed instruction
system.cpu2.op_class::InstPrefetch                  0      0.00%    100.00% # Class of executed instruction
system.cpu2.op_class::total                  29033757                       # Class of executed instruction
system.ruby.clk_domain.clock                      500                       # Clock period in ticks
system.ruby.delayHist::bucket_size                  4                       # delay histogram for all message
system.ruby.delayHist::max_bucket                  39                       # delay histogram for all message
system.ruby.delayHist::samples                8396745                       # delay histogram for all message
system.ruby.delayHist::mean                  0.669502                       # delay histogram for all message
system.ruby.delayHist::stdev                 2.228161                       # delay histogram for all message
system.ruby.delayHist                    |     7695962     91.65%     91.65% |       14944      0.18%     91.83% |      681519      8.12%     99.95% |         779      0.01%     99.96% |        3407      0.04%    100.00% |          11      0.00%    100.00% |         123      0.00%    100.00% |           0      0.00%    100.00% |           0      0.00%    100.00% |           0      0.00%    100.00% # delay histogram for all message
system.ruby.delayHist::total                  8396745                       # delay histogram for all message
system.ruby.outstanding_req_hist::bucket_size            1                      
system.ruby.outstanding_req_hist::max_bucket            9                      
system.ruby.outstanding_req_hist::samples    800833208                      
system.ruby.outstanding_req_hist::mean       1.000184                      
system.ruby.outstanding_req_hist::gmean      1.000128                      
system.ruby.outstanding_req_hist::stdev      0.013571                      
system.ruby.outstanding_req_hist         |           0      0.00%      0.00% |   800685690     99.98%     99.98% |      147518      0.02%    100.00% |           0      0.00%    100.00% |           0      0.00%    100.00% |           0      0.00%    100.00% |           0      0.00%    100.00% |           0      0.00%    100.00% |           0      0.00%    100.00% |           0      0.00%    100.00%
system.ruby.outstanding_req_hist::total     800833208                      
system.ruby.latency_hist::bucket_size             128                      
system.ruby.latency_hist::max_bucket             1279                      
system.ruby.latency_hist::samples           800833208                      
system.ruby.latency_hist::mean               1.099483                      
system.ruby.latency_hist::gmean              1.006441                      
system.ruby.latency_hist::stdev              3.677459                      
system.ruby.latency_hist                 |   800761232     99.99%     99.99% |       58178      0.01%    100.00% |        2457      0.00%    100.00% |        2130      0.00%    100.00% |        8100      0.00%    100.00% |        1111      0.00%    100.00% |           0      0.00%    100.00% |           0      0.00%    100.00% |           0      0.00%    100.00% |           0      0.00%    100.00%
system.ruby.latency_hist::total             800833208                      
system.ruby.hit_latency_hist::bucket_size          128                      
system.ruby.hit_latency_hist::max_bucket         1279                      
system.ruby.hit_latency_hist::samples       800833208                      
system.ruby.hit_latency_hist::mean           1.099483                      
system.ruby.hit_latency_hist::gmean          1.006441                      
system.ruby.hit_latency_hist::stdev          3.677459                      
system.ruby.hit_latency_hist             |   800761232     99.99%     99.99% |       58178      0.01%    100.00% |        2457      0.00%    100.00% |        2130      0.00%    100.00% |        8100      0.00%    100.00% |        1111      0.00%    100.00% |           0      0.00%    100.00% |           0      0.00%    100.00% |           0      0.00%    100.00% |           0      0.00%    100.00%
system.ruby.hit_latency_hist::total         800833208                      
system.ruby.l0_cntrl0.Dcache.demand_hits    188035256                       # Number of cache demand hits
system.ruby.l0_cntrl0.Dcache.demand_misses       573212                       # Number of cache demand misses
system.ruby.l0_cntrl0.Dcache.demand_accesses    188608468                       # Number of cache demand accesses
system.ruby.l0_cntrl0.Icache.demand_hits    560658603                       # Number of cache demand hits
system.ruby.l0_cntrl0.Icache.demand_misses         2299                       # Number of cache demand misses
system.ruby.l0_cntrl0.Icache.demand_accesses    560660902                       # Number of cache demand accesses
system.ruby.l0_cntrl0.Zcache.demand_hits            0                       # Number of cache demand hits
system.ruby.l0_cntrl0.Zcache.demand_misses            0                       # Number of cache demand misses
system.ruby.l0_cntrl0.Zcache.demand_accesses            0                       # Number of cache demand accesses
system.ruby.l0_cntrl1.Dcache.demand_hits      6710727                       # Number of cache demand hits
system.ruby.l0_cntrl1.Dcache.demand_misses       446856                       # Number of cache demand misses
system.ruby.l0_cntrl1.Dcache.demand_accesses      7157583                       # Number of cache demand accesses
system.ruby.l0_cntrl1.Icache.demand_hits     18624044                       # Number of cache demand hits
system.ruby.l0_cntrl1.Icache.demand_misses          292                       # Number of cache demand misses
system.ruby.l0_cntrl1.Icache.demand_accesses     18624336                       # Number of cache demand accesses
system.ruby.l0_cntrl1.Zcache.demand_hits            0                       # Number of cache demand hits
system.ruby.l0_cntrl1.Zcache.demand_misses            0                       # Number of cache demand misses
system.ruby.l0_cntrl1.Zcache.demand_accesses            0                       # Number of cache demand accesses
system.ruby.l0_cntrl2.Dcache.demand_hits      6710701                       # Number of cache demand hits
system.ruby.l0_cntrl2.Dcache.demand_misses       446882                       # Number of cache demand misses
system.ruby.l0_cntrl2.Dcache.demand_accesses      7157583                       # Number of cache demand accesses
system.ruby.l0_cntrl2.Icache.demand_hits     18624056                       # Number of cache demand hits
system.ruby.l0_cntrl2.Icache.demand_misses          280                       # Number of cache demand misses
system.ruby.l0_cntrl2.Icache.demand_accesses     18624336                       # Number of cache demand accesses
system.ruby.l0_cntrl2.Zcache.demand_hits            0                       # Number of cache demand hits
system.ruby.l0_cntrl2.Zcache.demand_misses            0                       # Number of cache demand misses
system.ruby.l0_cntrl2.Zcache.demand_accesses            0                       # Number of cache demand accesses
system.ruby.l1_cntrl0.cache.demand_hits            96                       # Number of cache demand hits
system.ruby.l1_cntrl0.cache.demand_misses       575415                       # Number of cache demand misses
system.ruby.l1_cntrl0.cache.demand_accesses       575511                       # Number of cache demand accesses
system.ruby.l1_cntrl1.cache.demand_hits         73627                       # Number of cache demand hits
system.ruby.l1_cntrl1.cache.demand_misses       373521                       # Number of cache demand misses
system.ruby.l1_cntrl1.cache.demand_accesses       447148                       # Number of cache demand accesses
system.ruby.l1_cntrl2.cache.demand_hits         73843                       # Number of cache demand hits
system.ruby.l1_cntrl2.cache.demand_misses       373319                       # Number of cache demand misses
system.ruby.l1_cntrl2.cache.demand_accesses       447162                       # Number of cache demand accesses
system.ruby.l2_cntrl0.L2cache.demand_hits       773869                       # Number of cache demand hits
system.ruby.l2_cntrl0.L2cache.demand_misses       548386                       # Number of cache demand misses
system.ruby.l2_cntrl0.L2cache.demand_accesses      1322255                       # Number of cache demand accesses
system.ruby.memctrl_clk_domain.clock             1500                       # Clock period in ticks
system.ruby.network.routers0.percent_links_utilized            0                      
system.ruby.network.routers1.percent_links_utilized            0                      
system.ruby.network.routers2.percent_links_utilized            0                      
system.ruby.network.routers3.percent_links_utilized     0.194422                      
system.ruby.network.routers3.msg_count.Control::0       575415                      
system.ruby.network.routers3.msg_count.Request_Control::2         7762                      
system.ruby.network.routers3.msg_count.Response_Data::1       590904                      
system.ruby.network.routers3.msg_count.Response_Control::1       566540                      
system.ruby.network.routers3.msg_count.Response_Control::2       575400                      
system.ruby.network.routers3.msg_count.Writeback_Data::0       566213                      
system.ruby.network.routers3.msg_count.Writeback_Control::0          263                      
system.ruby.network.routers3.msg_bytes.Control::0      4603320                      
system.ruby.network.routers3.msg_bytes.Request_Control::2        62096                      
system.ruby.network.routers3.msg_bytes.Response_Data::1     42545088                      
system.ruby.network.routers3.msg_bytes.Response_Control::1      4532320                      
system.ruby.network.routers3.msg_bytes.Response_Control::2      4603200                      
system.ruby.network.routers3.msg_bytes.Writeback_Data::0     40767336                      
system.ruby.network.routers3.msg_bytes.Writeback_Control::0         2104                      
system.ruby.network.routers4.percent_links_utilized     0.074595                      
system.ruby.network.routers4.msg_count.Control::0       373521                      
system.ruby.network.routers4.msg_count.Request_Control::2           55                      
system.ruby.network.routers4.msg_count.Response_Data::1       373592                      
system.ruby.network.routers4.msg_count.Response_Control::1       266356                      
system.ruby.network.routers4.msg_count.Response_Control::2       363725                      
system.ruby.network.routers4.msg_count.Writeback_Data::0         3158                      
system.ruby.network.routers4.msg_count.Writeback_Control::0       263176                      
system.ruby.network.routers4.msg_bytes.Control::0      2988168                      
system.ruby.network.routers4.msg_bytes.Request_Control::2          440                      
system.ruby.network.routers4.msg_bytes.Response_Data::1     26898624                      
system.ruby.network.routers4.msg_bytes.Response_Control::1      2130848                      
system.ruby.network.routers4.msg_bytes.Response_Control::2      2909800                      
system.ruby.network.routers4.msg_bytes.Writeback_Data::0       227376                      
system.ruby.network.routers4.msg_bytes.Writeback_Control::0      2105408                      
system.ruby.network.routers5.percent_links_utilized     0.104277                      
system.ruby.network.routers5.msg_count.Control::0       373319                      
system.ruby.network.routers5.msg_count.Request_Control::2        97190                      
system.ruby.network.routers5.msg_count.Response_Data::1       567660                      
system.ruby.network.routers5.msg_count.Response_Control::1       266277                      
system.ruby.network.routers5.msg_count.Response_Control::2       371340                      
system.ruby.network.routers5.msg_count.Writeback_Data::0         3451                      
system.ruby.network.routers5.msg_count.Writeback_Control::0       262805                      
system.ruby.network.routers5.msg_bytes.Control::0      2986552                      
system.ruby.network.routers5.msg_bytes.Request_Control::2       777520                      
system.ruby.network.routers5.msg_bytes.Response_Data::1     40871520                      
system.ruby.network.routers5.msg_bytes.Response_Control::1      2130216                      
system.ruby.network.routers5.msg_bytes.Response_Control::2      2970720                      
system.ruby.network.routers5.msg_bytes.Writeback_Data::0       248472                      
system.ruby.network.routers5.msg_bytes.Writeback_Control::0      2102440                      
system.ruby.network.routers6.percent_links_utilized     0.414047                      
system.ruby.network.routers6.msg_count.Control::0      1765667                      
system.ruby.network.routers6.msg_count.Request_Control::2       104997                      
system.ruby.network.routers6.msg_count.Response_Data::1      1765627                      
system.ruby.network.routers6.msg_count.Response_Control::1      1099093                      
system.ruby.network.routers6.msg_count.Response_Control::2      1310465                      
system.ruby.network.routers6.msg_count.Writeback_Data::0       572822                      
system.ruby.network.routers6.msg_count.Writeback_Control::0       526244                      
system.ruby.network.routers6.msg_bytes.Control::0     14125336                      
system.ruby.network.routers6.msg_bytes.Request_Control::2       839976                      
system.ruby.network.routers6.msg_bytes.Response_Data::1    127125144                      
system.ruby.network.routers6.msg_bytes.Response_Control::1      8792744                      
system.ruby.network.routers6.msg_bytes.Response_Control::2     10483720                      
system.ruby.network.routers6.msg_bytes.Writeback_Data::0     41243184                      
system.ruby.network.routers6.msg_bytes.Writeback_Control::0      4209952                      
system.ruby.network.routers7.percent_links_utilized     0.071016                      
system.ruby.network.routers7.msg_count.Control::0       443412                      
system.ruby.network.routers7.msg_count.Response_Data::1       443412                      
system.ruby.network.routers7.msg_bytes.Control::0      3547296                      
system.ruby.network.routers7.msg_bytes.Response_Data::1     31925664                      
system.ruby.network.routers8.percent_links_utilized     0.107295                      
system.ruby.network.routers8.msg_count.Control::0      1765667                      
system.ruby.network.routers8.msg_count.Request_Control::2       105007                      
system.ruby.network.routers8.msg_count.Response_Data::1      1870601                      
system.ruby.network.routers8.msg_count.Response_Control::1      1099133                      
system.ruby.network.routers8.msg_count.Response_Control::2      1310465                      
system.ruby.network.routers8.msg_count.Writeback_Data::0       572822                      
system.ruby.network.routers8.msg_count.Writeback_Control::0       526244                      
system.ruby.network.routers8.msg_bytes.Control::0     14125336                      
system.ruby.network.routers8.msg_bytes.Request_Control::2       840056                      
system.ruby.network.routers8.msg_bytes.Response_Data::1    134683272                      
system.ruby.network.routers8.msg_bytes.Response_Control::1      8793064                      
system.ruby.network.routers8.msg_bytes.Response_Control::2     10483720                      
system.ruby.network.routers8.msg_bytes.Writeback_Data::0     41243184                      
system.ruby.network.routers8.msg_bytes.Writeback_Control::0      4209952                      
system.ruby.network.msg_count.Control         5297001                      
system.ruby.network.msg_count.Request_Control       315011                      
system.ruby.network.msg_count.Response_Data      5611796                      
system.ruby.network.msg_count.Response_Control      7228794                      
system.ruby.network.msg_count.Writeback_Data      1718466                      
system.ruby.network.msg_count.Writeback_Control      1578732                      
system.ruby.network.msg_byte.Control         42376008                      
system.ruby.network.msg_byte.Request_Control      2520088                      
system.ruby.network.msg_byte.Response_Data    404049312                      
system.ruby.network.msg_byte.Response_Control     57830352                      
system.ruby.network.msg_byte.Writeback_Data    123729552                      
system.ruby.network.msg_byte.Writeback_Control     12629856                      
system.ruby.network.routers0.throttle0.link_utilization            0                      
system.ruby.network.routers0.throttle1.link_utilization            0                      
system.ruby.network.routers1.throttle0.link_utilization            0                      
system.ruby.network.routers1.throttle1.link_utilization            0                      
system.ruby.network.routers2.throttle0.link_utilization            0                      
system.ruby.network.routers2.throttle1.link_utilization            0                      
system.ruby.network.routers3.throttle0.link_utilization     0.184271                      
system.ruby.network.routers3.throttle0.msg_count.Request_Control::2         7762                      
system.ruby.network.routers3.throttle0.msg_count.Response_Data::1       575391                      
system.ruby.network.routers3.throttle0.msg_count.Response_Control::1       566535                      
system.ruby.network.routers3.throttle0.msg_bytes.Request_Control::2        62096                      
system.ruby.network.routers3.throttle0.msg_bytes.Response_Data::1     41428152                      
system.ruby.network.routers3.throttle0.msg_bytes.Response_Control::1      4532280                      
system.ruby.network.routers3.throttle1.link_utilization     0.204573                      
system.ruby.network.routers3.throttle1.msg_count.Control::0       575415                      
system.ruby.network.routers3.throttle1.msg_count.Response_Data::1        15513                      
system.ruby.network.routers3.throttle1.msg_count.Response_Control::1            5                      
system.ruby.network.routers3.throttle1.msg_count.Response_Control::2       575400                      
system.ruby.network.routers3.throttle1.msg_count.Writeback_Data::0       566213                      
system.ruby.network.routers3.throttle1.msg_count.Writeback_Control::0          263                      
system.ruby.network.routers3.throttle1.msg_bytes.Control::0      4603320                      
system.ruby.network.routers3.throttle1.msg_bytes.Response_Data::1      1116936                      
system.ruby.network.routers3.throttle1.msg_bytes.Response_Control::1           40                      
system.ruby.network.routers3.throttle1.msg_bytes.Response_Control::2      4603200                      
system.ruby.network.routers3.throttle1.msg_bytes.Writeback_Data::0     40767336                      
system.ruby.network.routers3.throttle1.msg_bytes.Writeback_Control::0         2104                      
system.ruby.network.routers4.throttle0.link_utilization     0.116212                      
system.ruby.network.routers4.throttle0.msg_count.Request_Control::2           55                      
system.ruby.network.routers4.throttle0.msg_count.Response_Data::1       373519                      
system.ruby.network.routers4.throttle0.msg_count.Response_Control::1       266339                      
system.ruby.network.routers4.throttle0.msg_bytes.Request_Control::2          440                      
system.ruby.network.routers4.throttle0.msg_bytes.Response_Data::1     26893368                      
system.ruby.network.routers4.throttle0.msg_bytes.Response_Control::1      2130712                      
system.ruby.network.routers4.throttle1.link_utilization     0.032977                      
system.ruby.network.routers4.throttle1.msg_count.Control::0       373521                      
system.ruby.network.routers4.throttle1.msg_count.Response_Data::1           73                      
system.ruby.network.routers4.throttle1.msg_count.Response_Control::1           17                      
system.ruby.network.routers4.throttle1.msg_count.Response_Control::2       363725                      
system.ruby.network.routers4.throttle1.msg_count.Writeback_Data::0         3158                      
system.ruby.network.routers4.throttle1.msg_count.Writeback_Control::0       263176                      
system.ruby.network.routers4.throttle1.msg_bytes.Control::0      2988168                      
system.ruby.network.routers4.throttle1.msg_bytes.Response_Data::1         5256                      
system.ruby.network.routers4.throttle1.msg_bytes.Response_Control::1          136                      
system.ruby.network.routers4.throttle1.msg_bytes.Response_Control::2      2909800                      
system.ruby.network.routers4.throttle1.msg_bytes.Writeback_Data::0       227376                      
system.ruby.network.routers4.throttle1.msg_bytes.Writeback_Control::0      2105408                      
system.ruby.network.routers5.throttle0.link_utilization     0.119263                      
system.ruby.network.routers5.throttle0.msg_count.Request_Control::2        97190                      
system.ruby.network.routers5.throttle0.msg_count.Response_Data::1       373318                      
system.ruby.network.routers5.throttle0.msg_count.Response_Control::1       266259                      
system.ruby.network.routers5.throttle0.msg_bytes.Request_Control::2       777520                      
system.ruby.network.routers5.throttle0.msg_bytes.Response_Data::1     26878896                      
system.ruby.network.routers5.throttle0.msg_bytes.Response_Control::1      2130072                      
system.ruby.network.routers5.throttle1.link_utilization     0.089291                      
system.ruby.network.routers5.throttle1.msg_count.Control::0       373319                      
system.ruby.network.routers5.throttle1.msg_count.Response_Data::1       194342                      
system.ruby.network.routers5.throttle1.msg_count.Response_Control::1           18                      
system.ruby.network.routers5.throttle1.msg_count.Response_Control::2       371340                      
system.ruby.network.routers5.throttle1.msg_count.Writeback_Data::0         3451                      
system.ruby.network.routers5.throttle1.msg_count.Writeback_Control::0       262805                      
system.ruby.network.routers5.throttle1.msg_bytes.Control::0      2986552                      
system.ruby.network.routers5.throttle1.msg_bytes.Response_Data::1     13992624                      
system.ruby.network.routers5.throttle1.msg_bytes.Response_Control::1          144                      
system.ruby.network.routers5.throttle1.msg_bytes.Response_Control::2      2970720                      
system.ruby.network.routers5.throttle1.msg_bytes.Writeback_Data::0       248472                      
system.ruby.network.routers5.throttle1.msg_bytes.Writeback_Control::0      2102440                      
system.ruby.network.routers6.throttle0.link_utilization     0.424408                      
system.ruby.network.routers6.throttle0.msg_count.Control::0      1322255                      
system.ruby.network.routers6.throttle0.msg_count.Response_Data::1       548373                      
system.ruby.network.routers6.throttle0.msg_count.Response_Control::2      1310465                      
system.ruby.network.routers6.throttle0.msg_count.Writeback_Data::0       572822                      
system.ruby.network.routers6.throttle0.msg_count.Writeback_Control::0       526244                      
system.ruby.network.routers6.throttle0.msg_bytes.Control::0     10578040                      
system.ruby.network.routers6.throttle0.msg_bytes.Response_Data::1     39482856                      
system.ruby.network.routers6.throttle0.msg_bytes.Response_Control::2     10483720                      
system.ruby.network.routers6.throttle0.msg_bytes.Writeback_Data::0     41243184                      
system.ruby.network.routers6.throttle0.msg_bytes.Writeback_Control::0      4209952                      
system.ruby.network.routers6.throttle1.link_utilization     0.403686                      
system.ruby.network.routers6.throttle1.msg_count.Control::0       443412                      
system.ruby.network.routers6.throttle1.msg_count.Request_Control::2       104997                      
system.ruby.network.routers6.throttle1.msg_count.Response_Data::1      1217254                      
system.ruby.network.routers6.throttle1.msg_count.Response_Control::1      1099093                      
system.ruby.network.routers6.throttle1.msg_bytes.Control::0      3547296                      
system.ruby.network.routers6.throttle1.msg_bytes.Request_Control::2       839976                      
system.ruby.network.routers6.throttle1.msg_bytes.Response_Data::1     87642288                      
system.ruby.network.routers6.throttle1.msg_bytes.Response_Control::1      8792744                      
system.ruby.network.routers7.throttle0.link_utilization     0.014203                      
system.ruby.network.routers7.throttle0.msg_count.Control::0       443412                      
system.ruby.network.routers7.throttle0.msg_bytes.Control::0      3547296                      
system.ruby.network.routers7.throttle1.link_utilization     0.127828                      
system.ruby.network.routers7.throttle1.msg_count.Response_Data::1       443412                      
system.ruby.network.routers7.throttle1.msg_bytes.Response_Data::1     31925664                      
system.ruby.network.routers8.throttle0.link_utilization            0                      
system.ruby.network.routers8.throttle1.link_utilization            0                      
system.ruby.network.routers8.throttle2.link_utilization            0                      
system.ruby.network.routers8.throttle3.link_utilization     0.184271                      
system.ruby.network.routers8.throttle3.msg_count.Request_Control::2         7762                      
system.ruby.network.routers8.throttle3.msg_count.Response_Data::1       575391                      
system.ruby.network.routers8.throttle3.msg_count.Response_Control::1       566535                      
system.ruby.network.routers8.throttle3.msg_bytes.Request_Control::2        62096                      
system.ruby.network.routers8.throttle3.msg_bytes.Response_Data::1     41428152                      
system.ruby.network.routers8.throttle3.msg_bytes.Response_Control::1      4532280                      
system.ruby.network.routers8.throttle4.link_utilization     0.116212                      
system.ruby.network.routers8.throttle4.msg_count.Request_Control::2           55                      
system.ruby.network.routers8.throttle4.msg_count.Response_Data::1       373519                      
system.ruby.network.routers8.throttle4.msg_count.Response_Control::1       266339                      
system.ruby.network.routers8.throttle4.msg_bytes.Request_Control::2          440                      
system.ruby.network.routers8.throttle4.msg_bytes.Response_Data::1     26893368                      
system.ruby.network.routers8.throttle4.msg_bytes.Response_Control::1      2130712                      
system.ruby.network.routers8.throttle5.link_utilization     0.119263                      
system.ruby.network.routers8.throttle5.msg_count.Request_Control::2        97190                      
system.ruby.network.routers8.throttle5.msg_count.Response_Data::1       373318                      
system.ruby.network.routers8.throttle5.msg_count.Response_Control::1       266259                      
system.ruby.network.routers8.throttle5.msg_bytes.Request_Control::2       777520                      
system.ruby.network.routers8.throttle5.msg_bytes.Response_Data::1     26878896                      
system.ruby.network.routers8.throttle5.msg_bytes.Response_Control::1      2130072                      
system.ruby.network.routers8.throttle6.link_utilization     0.424408                      
system.ruby.network.routers8.throttle6.msg_count.Control::0      1322255                      
system.ruby.network.routers8.throttle6.msg_count.Response_Data::1       548373                      
system.ruby.network.routers8.throttle6.msg_count.Response_Control::2      1310465                      
system.ruby.network.routers8.throttle6.msg_count.Writeback_Data::0       572822                      
system.ruby.network.routers8.throttle6.msg_count.Writeback_Control::0       526244                      
system.ruby.network.routers8.throttle6.msg_bytes.Control::0     10578040                      
system.ruby.network.routers8.throttle6.msg_bytes.Response_Data::1     39482856                      
system.ruby.network.routers8.throttle6.msg_bytes.Response_Control::2     10483720                      
system.ruby.network.routers8.throttle6.msg_bytes.Writeback_Data::0     41243184                      
system.ruby.network.routers8.throttle6.msg_bytes.Writeback_Control::0      4209952                      
system.ruby.network.routers8.throttle7.link_utilization     0.014203                      
system.ruby.network.routers8.throttle7.msg_count.Control::0       443412                      
system.ruby.network.routers8.throttle7.msg_bytes.Control::0      3547296                      
system.ruby.delayVCHist.vnet_0::bucket_size            4                       # delay histogram for vnet_0
system.ruby.delayVCHist.vnet_0::max_bucket           39                       # delay histogram for vnet_0
system.ruby.delayVCHist.vnet_0::samples       3731786                       # delay histogram for vnet_0
system.ruby.delayVCHist.vnet_0::mean         1.250888                       # delay histogram for vnet_0
system.ruby.delayVCHist.vnet_0::stdev        2.930067                       # delay histogram for vnet_0
[...]
system.ruby.L0Cache_Controller.M.Inv::total         1170                      
system.ruby.L0Cache_Controller.M.L0_Replacement |      571148     99.57%     99.57% |        1249      0.22%     99.78% |        1245      0.22%    100.00%
system.ruby.L0Cache_Controller.M.L0_Replacement::total       573642                      
system.ruby.L0Cache_Controller.IS.Data   |          41      0.03%      0.03% |      106984     90.32%     90.35% |       11429      9.65%    100.00%
system.ruby.L0Cache_Controller.IS.Data::total       118454                      
system.ruby.L0Cache_Controller.IS.Data_Exclusive |        3135      0.40%      0.40% |      338879     43.64%     44.05% |      434452     55.95%    100.00%
system.ruby.L0Cache_Controller.IS.Data_Exclusive::total       776466                      
system.ruby.L0Cache_Controller.IM.Data_Exclusive |      572311     99.55%     99.55% |        1283      0.22%     99.78% |        1280      0.22%    100.00%
system.ruby.L0Cache_Controller.IM.Data_Exclusive::total       574874                      
system.ruby.L0Cache_Controller.SM.Data_Exclusive |          24     88.89%     88.89% |           2      7.41%     96.30% |           1      3.70%    100.00%
system.ruby.L0Cache_Controller.SM.Data_Exclusive::total           27                      
system.ruby.L1Cache_Controller.Load      |        3176      0.35%      0.35% |      445863     49.82%     50.18% |      445881     49.82%    100.00%
system.ruby.L1Cache_Controller.Load::total       894920                      
system.ruby.L1Cache_Controller.Store     |      572335     99.55%     99.55% |        1285      0.22%     99.78% |        1281      0.22%    100.00%
system.ruby.L1Cache_Controller.Store::total       574901                      
system.ruby.L1Cache_Controller.WriteBack |      571465     42.89%     42.89% |      338064     25.37%     68.27% |      422818     31.73%    100.00%
system.ruby.L1Cache_Controller.WriteBack::total      1332347                      
system.ruby.L1Cache_Controller.L0_DataAck |        1061     90.68%     90.68% |          54      4.62%     95.30% |          55      4.70%    100.00%
system.ruby.L1Cache_Controller.L0_DataAck::total         1170                      
system.ruby.L1Cache_Controller.Inv       |           5     12.50%     12.50% |          17     42.50%     55.00% |          18     45.00%    100.00%
system.ruby.L1Cache_Controller.Inv::total           40                      
system.ruby.L1Cache_Controller.L0_Invalidate_Own |        4434      2.03%      2.03% |      201782     92.43%     94.46% |       12086      5.54%    100.00%
system.ruby.L1Cache_Controller.L0_Invalidate_Own::total       218302                      
system.ruby.L1Cache_Controller.L0_Invalidate_Else |        1298      5.77%      5.77% |          92      0.41%      6.18% |       21102     93.82%    100.00%
system.ruby.L1Cache_Controller.L0_Invalidate_Else::total        22492                      
system.ruby.L1Cache_Controller.L1_Replacement |      567193     43.71%     43.71% |      365327     28.15%     71.86% |      365126     28.14%    100.00%
system.ruby.L1Cache_Controller.L1_Replacement::total      1297646                      
system.ruby.L1Cache_Controller.Fwd_GETX  |           1     16.67%     16.67% |           3     50.00%     66.67% |           2     33.33%    100.00%
system.ruby.L1Cache_Controller.Fwd_GETX::total            6                      
system.ruby.L1Cache_Controller.Fwd_GETS  |        7756      7.39%      7.39% |          35      0.03%      7.42% |       97170     92.58%    100.00%
system.ruby.L1Cache_Controller.Fwd_GETS::total       104961                      
system.ruby.L1Cache_Controller.Data      |           1     33.33%     33.33% |           1     33.33%     66.67% |           1     33.33%    100.00%
system.ruby.L1Cache_Controller.Data::total            3                      
system.ruby.L1Cache_Controller.Data_Exclusive |        3071      0.49%      0.49% |      265268     42.06%     42.55% |      362287     57.45%    100.00%
system.ruby.L1Cache_Controller.Data_Exclusive::total       630626                      
system.ruby.L1Cache_Controller.DataS_fromL1 |          15      0.01%      0.01% |       97173     92.58%     92.59% |        7773      7.41%    100.00%
system.ruby.L1Cache_Controller.DataS_fromL1::total       104961                      
system.ruby.L1Cache_Controller.Data_all_Acks |      572304     97.56%     97.56% |       11077      1.89%     99.44% |        3257      0.56%    100.00%
system.ruby.L1Cache_Controller.Data_all_Acks::total       586638                      
system.ruby.L1Cache_Controller.L0_Ack    |        1805      1.51%      1.51% |      100883     84.61%     86.13% |       16539     13.87%    100.00%
system.ruby.L1Cache_Controller.L0_Ack::total       119227                      
system.ruby.L1Cache_Controller.Ack       |          34     91.89%     91.89% |           2      5.41%     97.30% |           1      2.70%    100.00%
system.ruby.L1Cache_Controller.Ack::total           37                      
system.ruby.L1Cache_Controller.Ack_all   |          25     83.33%     83.33% |           3     10.00%     93.33% |           2      6.67%    100.00%
system.ruby.L1Cache_Controller.Ack_all::total           30                      
system.ruby.L1Cache_Controller.WB_Ack    |      566476     51.54%     51.54% |      266334     24.23%     75.77% |      266256     24.23%    100.00%
system.ruby.L1Cache_Controller.WB_Ack::total      1099066                      
system.ruby.L1Cache_Controller.NP.Load   |        3100      0.41%      0.41% |      372237     49.81%     50.22% |      372039     49.78%    100.00%
system.ruby.L1Cache_Controller.NP.Load::total       747376                      
system.ruby.L1Cache_Controller.NP.Store  |      572290     99.55%     99.55% |        1282      0.22%     99.78% |        1279      0.22%    100.00%
system.ruby.L1Cache_Controller.NP.Store::total       574851                      
system.ruby.L1Cache_Controller.NP.Inv    |           0      0.00%      0.00% |           5     50.00%     50.00% |           5     50.00%    100.00%
system.ruby.L1Cache_Controller.NP.Inv::total           10                      
system.ruby.L1Cache_Controller.I.Load    |           1    100.00%    100.00% |           0      0.00%    100.00% |           0      0.00%    100.00%
system.ruby.L1Cache_Controller.I.Load::total            1                      
system.ruby.L1Cache_Controller.I.L1_Replacement |           0      0.00%      0.00% |           2    100.00%    100.00% |           0      0.00%    100.00%
system.ruby.L1Cache_Controller.I.L1_Replacement::total            2                      
system.ruby.L1Cache_Controller.S.Load    |           0      0.00%      0.00% |           2     40.00%     40.00% |           3     60.00%    100.00%
system.ruby.L1Cache_Controller.S.Load::total            5                      
system.ruby.L1Cache_Controller.S.Store   |          24     88.89%     88.89% |           2      7.41%     96.30% |           1      3.70%    100.00%
system.ruby.L1Cache_Controller.S.Store::total           27                      
system.ruby.L1Cache_Controller.S.L0_Invalidate_Own |           0      0.00%      0.00% |       98979     96.27%     96.27% |        3834      3.73%    100.00%
system.ruby.L1Cache_Controller.S.L0_Invalidate_Own::total       102813                      
system.ruby.L1Cache_Controller.S.L0_Invalidate_Else |           1      6.67%      6.67% |           5     33.33%     40.00% |           9     60.00%    100.00%
system.ruby.L1Cache_Controller.S.L0_Invalidate_Else::total           15                      
system.ruby.L1Cache_Controller.SS.Load   |          11      0.65%      0.65% |          13      0.77%      1.41% |        1674     98.59%    100.00%
system.ruby.L1Cache_Controller.SS.Load::total         1698                      
system.ruby.L1Cache_Controller.SS.Inv    |           5     16.67%     16.67% |          12     40.00%     56.67% |          13     43.33%    100.00%
system.ruby.L1Cache_Controller.SS.Inv::total           30                      
system.ruby.L1Cache_Controller.SS.L1_Replacement |         717      0.36%      0.36% |       98991     49.85%     50.21% |       98870     49.79%    100.00%
system.ruby.L1Cache_Controller.SS.L1_Replacement::total       198578                      
system.ruby.L1Cache_Controller.E.WriteBack |         355      0.06%      0.06% |      263253     42.94%     43.00% |      349416     57.00%    100.00%
system.ruby.L1Cache_Controller.E.WriteBack::total       613024                      
system.ruby.L1Cache_Controller.E.L0_Invalidate_Own |        1998     32.91%     32.91% |        1870     30.80%     63.71% |        2203     36.29%    100.00%
system.ruby.L1Cache_Controller.E.L0_Invalidate_Own::total         6071                      
system.ruby.L1Cache_Controller.E.L0_Invalidate_Else |           9      0.09%      0.09% |          33      0.31%      0.40% |       10538     99.60%    100.00%
system.ruby.L1Cache_Controller.E.L0_Invalidate_Else::total        10580                      
system.ruby.L1Cache_Controller.EE.Load   |           0      0.00%      0.00% |           3     60.00%     60.00% |           2     40.00%    100.00%
system.ruby.L1Cache_Controller.EE.Load::total            5                      
system.ruby.L1Cache_Controller.EE.L1_Replacement |        1791     31.02%     31.02% |        1826     31.62%     62.64% |        2157     37.36%    100.00%
system.ruby.L1Cache_Controller.EE.L1_Replacement::total         5774                      
system.ruby.L1Cache_Controller.EE.Fwd_GETX |           0      0.00%      0.00% |           1    100.00%    100.00% |           0      0.00%    100.00%
system.ruby.L1Cache_Controller.EE.Fwd_GETX::total            1                      
system.ruby.L1Cache_Controller.EE.Fwd_GETS |           8      0.08%      0.08% |          28      0.26%      0.34% |       10535     99.66%    100.00%
system.ruby.L1Cache_Controller.EE.Fwd_GETS::total        10571                      
system.ruby.L1Cache_Controller.M.WriteBack |      571110     79.40%     79.40% |       74811     10.40%     89.80% |       73402     10.20%    100.00%
system.ruby.L1Cache_Controller.M.WriteBack::total       719323                      
system.ruby.L1Cache_Controller.M.L0_Invalidate_Own |         219     82.02%     82.02% |          42     15.73%     97.75% |           6      2.25%    100.00%
system.ruby.L1Cache_Controller.M.L0_Invalidate_Own::total          267                      
system.ruby.L1Cache_Controller.M.L0_Invalidate_Else |         639     98.16%     98.16% |           8      1.23%     99.39% |           4      0.61%    100.00%
system.ruby.L1Cache_Controller.M.L0_Invalidate_Else::total          651                      
system.ruby.L1Cache_Controller.MM.Load   |          64      0.04%      0.04% |       73608     50.47%     50.52% |       72163     49.48%    100.00%
system.ruby.L1Cache_Controller.MM.Load::total       145835                      
system.ruby.L1Cache_Controller.MM.Store  |          21     91.30%     91.30% |           1      4.35%     95.65% |           1      4.35%    100.00%
system.ruby.L1Cache_Controller.MM.Store::total           23                      
system.ruby.L1Cache_Controller.MM.L1_Replacement |      564685     51.65%     51.65% |      264508     24.19%     75.84% |      264099     24.16%    100.00%
system.ruby.L1Cache_Controller.MM.L1_Replacement::total      1093292                      
system.ruby.L1Cache_Controller.MM.Fwd_GETX |           1     20.00%     20.00% |           2     40.00%     60.00% |           2     40.00%    100.00%
system.ruby.L1Cache_Controller.MM.Fwd_GETX::total            5                      
system.ruby.L1Cache_Controller.MM.Fwd_GETS |        7748      8.21%      8.21% |           7      0.01%      8.22% |       86608     91.78%    100.00%
system.ruby.L1Cache_Controller.MM.Fwd_GETS::total        94363                      
system.ruby.L1Cache_Controller.IS.Data_Exclusive |        3071      0.49%      0.49% |      265268     42.06%     42.55% |      362287     57.45%    100.00%
system.ruby.L1Cache_Controller.IS.Data_Exclusive::total       630626                      
system.ruby.L1Cache_Controller.IS.DataS_fromL1 |          15      0.01%      0.01% |       97173     92.58%     92.59% |        7773      7.41%    100.00%
system.ruby.L1Cache_Controller.IS.DataS_fromL1::total       104961                      
system.ruby.L1Cache_Controller.IS.Data_all_Acks |          15      0.13%      0.13% |        9796     83.09%     83.21% |        1979     16.79%    100.00%
system.ruby.L1Cache_Controller.IS.Data_all_Acks::total        11790                      
system.ruby.L1Cache_Controller.IM.Data   |           1     33.33%     33.33% |           1     33.33%     66.67% |           1     33.33%    100.00%
system.ruby.L1Cache_Controller.IM.Data::total            3                      
system.ruby.L1Cache_Controller.IM.Data_all_Acks |      572289     99.55%     99.55% |        1281      0.22%     99.78% |        1278      0.22%    100.00%
system.ruby.L1Cache_Controller.IM.Data_all_Acks::total       574848                      
system.ruby.L1Cache_Controller.SM.Ack    |          34     91.89%     91.89% |           2      5.41%     97.30% |           1      2.70%    100.00%
system.ruby.L1Cache_Controller.SM.Ack::total           37                      
system.ruby.L1Cache_Controller.SM.Ack_all |          25     83.33%     83.33% |           3     10.00%     93.33% |           2      6.67%    100.00%
system.ruby.L1Cache_Controller.SM.Ack_all::total           30                      
system.ruby.L1Cache_Controller.M_I.Fwd_GETS |           0      0.00%      0.00% |           0      0.00%      0.00% |          27    100.00%    100.00%
system.ruby.L1Cache_Controller.M_I.Fwd_GETS::total           27                      
system.ruby.L1Cache_Controller.M_I.WB_Ack |      566476     51.54%     51.54% |      266334     24.23%     75.78% |      266229     24.22%    100.00%
system.ruby.L1Cache_Controller.M_I.WB_Ack::total      1099039                      
system.ruby.L1Cache_Controller.SINK_WB_ACK.WB_Ack |           0      0.00%      0.00% |           0      0.00%      0.00% |          27    100.00%    100.00%
system.ruby.L1Cache_Controller.SINK_WB_ACK.WB_Ack::total           27                      
system.ruby.L1Cache_Controller.S_IL0.L0_Invalidate_Own |           0      0.00%      0.00% |       98979     96.27%     96.27% |        3834      3.73%    100.00%
system.ruby.L1Cache_Controller.S_IL0.L0_Invalidate_Own::total       102813                      
system.ruby.L1Cache_Controller.S_IL0.L0_Invalidate_Else |           1      6.67%      6.67% |           5     33.33%     40.00% |           9     60.00%    100.00%
system.ruby.L1Cache_Controller.S_IL0.L0_Invalidate_Else::total           15                      
system.ruby.L1Cache_Controller.S_IL0.L0_Ack |           1      0.00%      0.00% |       98984     96.26%     96.26% |        3843      3.74%    100.00%
system.ruby.L1Cache_Controller.S_IL0.L0_Ack::total       102828                      
system.ruby.L1Cache_Controller.E_IL0.L0_DataAck |         208     69.33%     69.33% |          45     15.00%     84.33% |          47     15.67%    100.00%
system.ruby.L1Cache_Controller.E_IL0.L0_DataAck::total          300                      
system.ruby.L1Cache_Controller.E_IL0.L0_Invalidate_Own |        1998     32.91%     32.91% |        1870     30.80%     63.71% |        2203     36.29%    100.00%
system.ruby.L1Cache_Controller.E_IL0.L0_Invalidate_Own::total         6071                      
system.ruby.L1Cache_Controller.E_IL0.L0_Invalidate_Else |           9      0.09%      0.09% |          33      0.31%      0.40% |       10538     99.60%    100.00%
system.ruby.L1Cache_Controller.E_IL0.L0_Invalidate_Else::total        10580                      
system.ruby.L1Cache_Controller.E_IL0.L0_Ack |        1799     11.00%     11.00% |        1858     11.36%     22.37% |       12694     77.63%    100.00%
system.ruby.L1Cache_Controller.E_IL0.L0_Ack::total        16351                      
system.ruby.L1Cache_Controller.M_IL0.L0_DataAck |         853     98.05%     98.05% |           9      1.03%     99.08% |           8      0.92%    100.00%
system.ruby.L1Cache_Controller.M_IL0.L0_DataAck::total          870                      
system.ruby.L1Cache_Controller.M_IL0.L0_Invalidate_Own |         219     82.02%     82.02% |          42     15.73%     97.75% |           6      2.25%    100.00%
system.ruby.L1Cache_Controller.M_IL0.L0_Invalidate_Own::total          267                      
system.ruby.L1Cache_Controller.M_IL0.L0_Invalidate_Else |         639     98.16%     98.16% |           8      1.23%     99.39% |           4      0.61%    100.00%
system.ruby.L1Cache_Controller.M_IL0.L0_Invalidate_Else::total          651                      
system.ruby.L1Cache_Controller.M_IL0.L0_Ack |           5     10.42%     10.42% |          41     85.42%     95.83% |           2      4.17%    100.00%
system.ruby.L1Cache_Controller.M_IL0.L0_Ack::total           48                      
system.ruby.L2Cache_Controller.L1_GETS         747379      0.00%      0.00%
system.ruby.L2Cache_Controller.L1_GETX         574851      0.00%      0.00%
system.ruby.L2Cache_Controller.L1_UPGRADE           27      0.00%      0.00%
system.ruby.L2Cache_Controller.L1_PUTX        1099093      0.00%      0.00%
system.ruby.L2Cache_Controller.Mem_Data        443412      0.00%      0.00%
system.ruby.L2Cache_Controller.WB_Data          18329      0.00%      0.00%
system.ruby.L2Cache_Controller.WB_Data_clean        86632      0.00%      0.00%
system.ruby.L2Cache_Controller.Unblock         104961      0.00%      0.00%
system.ruby.L2Cache_Controller.Exclusive_Unblock      1205504      0.00%      0.00%
system.ruby.L2Cache_Controller.NP.L1_GETS         1428      0.00%      0.00%
system.ruby.L2Cache_Controller.NP.L1_GETX       441984      0.00%      0.00%
system.ruby.L2Cache_Controller.SS.L1_GETS        11776      0.00%      0.00%
system.ruby.L2Cache_Controller.SS.L1_GETX            3      0.00%      0.00%
system.ruby.L2Cache_Controller.SS.L1_UPGRADE           27      0.00%      0.00%
system.ruby.L2Cache_Controller.SS.L1_PUTX           27      0.00%      0.00%
system.ruby.L2Cache_Controller.M.L1_GETS       629205      0.00%      0.00%
system.ruby.L2Cache_Controller.M.L1_GETX       132858      0.00%      0.00%
system.ruby.L2Cache_Controller.MT.L1_GETS       104961      0.00%      0.00%
system.ruby.L2Cache_Controller.MT.L1_GETX            6      0.00%      0.00%
system.ruby.L2Cache_Controller.MT.L1_PUTX      1099039      0.00%      0.00%
system.ruby.L2Cache_Controller.ISS.L1_GETS            7      0.00%      0.00%
system.ruby.L2Cache_Controller.ISS.Mem_Data         1421      0.00%      0.00%
system.ruby.L2Cache_Controller.IS.Mem_Data            7      0.00%      0.00%
system.ruby.L2Cache_Controller.IM.Mem_Data       441984      0.00%      0.00%
system.ruby.L2Cache_Controller.SS_MB.Exclusive_Unblock           30      0.00%      0.00%
system.ruby.L2Cache_Controller.MT_MB.L1_GETS            2      0.00%      0.00%
system.ruby.L2Cache_Controller.MT_MB.Exclusive_Unblock      1205474      0.00%      0.00%
system.ruby.L2Cache_Controller.MT_IIB.L1_PUTX           27      0.00%      0.00%
system.ruby.L2Cache_Controller.MT_IIB.WB_Data        18322      0.00%      0.00%
system.ruby.L2Cache_Controller.MT_IIB.WB_Data_clean        86620      0.00%      0.00%
system.ruby.L2Cache_Controller.MT_IIB.Unblock           19      0.00%      0.00%
system.ruby.L2Cache_Controller.MT_IB.WB_Data            7      0.00%      0.00%
system.ruby.L2Cache_Controller.MT_IB.WB_Data_clean           12      0.00%      0.00%
system.ruby.L2Cache_Controller.MT_SB.Unblock       104942      0.00%      0.00%

---------- End Simulation Statistics   ----------
