
---------- Begin Simulation Statistics ----------
sim_seconds                                  3.070992                       # Number of seconds simulated
sim_ticks                                3070991606000                       # Number of ticks simulated
final_tick                               3070991606000                       # Number of ticks from beginning of simulation (restored from checkpoints and never reset)
sim_freq                                 1000000000000                       # Frequency of simulated ticks
host_inst_rate                                 130705                       # Simulator instruction rate (inst/s)
host_op_rate                                   362695                       # Simulator op (including micro ops) rate (op/s)
host_tick_rate                              214958812                       # Simulator tick rate (ticks/s)
host_mem_usage                                1469692                       # Number of bytes of host memory used
host_seconds                                 14286.42                       # Real time elapsed on the host
sim_insts                                  1867310337                       # Number of instructions simulated
sim_ops                                    5181615294                       # Number of ops (including micro ops) simulated
system.voltage_domain.voltage                       1                       # Voltage in Volts
system.clk_domain.clock                          1000                       # Clock period in ticks
system.mem_ctrls.bytes_read::ruby.dir_cntrl0    196011072                       # Number of bytes read from this memory
system.mem_ctrls.bytes_read::total          196011072                       # Number of bytes read from this memory
system.mem_ctrls.bytes_written::ruby.dir_cntrl0     92338112                       # Number of bytes written to this memory
system.mem_ctrls.bytes_written::total        92338112                       # Number of bytes written to this memory
system.mem_ctrls.num_reads::ruby.dir_cntrl0      3062673                       # Number of read requests responded to by this memory
system.mem_ctrls.num_reads::total             3062673                       # Number of read requests responded to by this memory
system.mem_ctrls.num_writes::ruby.dir_cntrl0      1442783                       # Number of write requests responded to by this memory
system.mem_ctrls.num_writes::total            1442783                       # Number of write requests responded to by this memory
system.mem_ctrls.bw_read::ruby.dir_cntrl0     63826639                       # Total read bandwidth from this memory (bytes/s)
system.mem_ctrls.bw_read::total              63826639                       # Total read bandwidth from this memory (bytes/s)
system.mem_ctrls.bw_write::ruby.dir_cntrl0     30067849                       # Write bandwidth from this memory (bytes/s)
system.mem_ctrls.bw_write::total             30067849                       # Write bandwidth from this memory (bytes/s)
system.mem_ctrls.bw_total::ruby.dir_cntrl0     93894488                       # Total bandwidth to/from this memory (bytes/s)
system.mem_ctrls.bw_total::total             93894488                       # Total bandwidth to/from this memory (bytes/s)
system.mem_ctrls.readReqs                     3062673                       # Number of read requests accepted
system.mem_ctrls.writeReqs                    1442783                       # Number of write requests accepted
system.mem_ctrls.readBursts                   3062673                       # Number of DRAM read bursts, including those serviced by the write queue
system.mem_ctrls.writeBursts                  1442783                       # Number of DRAM write bursts, including those merged in the write queue
system.mem_ctrls.bytesReadDRAM              195864128                       # Total number of bytes read from DRAM
system.mem_ctrls.bytesReadWrQ                  146944                       # Total number of bytes read from write queue
system.mem_ctrls.bytesWritten                92336896                       # Total number of bytes written to DRAM
system.mem_ctrls.bytesReadSys               196011072                       # Total read bytes from the system interface side
system.mem_ctrls.bytesWrittenSys             92338112                       # Total written bytes from the system interface side
system.mem_ctrls.servicedByWrQ                   2296                       # Number of DRAM read bursts serviced by the write queue
system.mem_ctrls.mergedWrBursts                     1                       # Number of DRAM write bursts merged with an existing one
system.mem_ctrls.neitherReadNorWriteReqs            0                       # Number of requests that are neither read nor write
system.mem_ctrls.perBankRdBursts::0            192361                       # Per bank write bursts
system.mem_ctrls.perBankRdBursts::1            191085                       # Per bank write bursts
system.mem_ctrls.perBankRdBursts::2            190212                       # Per bank write bursts
system.mem_ctrls.perBankRdBursts::3            189533                       # Per bank write bursts
system.mem_ctrls.perBankRdBursts::4            189527                       # Per bank write bursts
system.mem_ctrls.perBankRdBursts::5            189945                       # Per bank write bursts
system.mem_ctrls.perBankRdBursts::6            190049                       # Per bank write bursts
system.mem_ctrls.perBankRdBursts::7            191635                       # Per bank write bursts
system.mem_ctrls.perBankRdBursts::8            191063                       # Per bank write bursts
system.mem_ctrls.perBankRdBursts::9            192227                       # Per bank write bursts
system.mem_ctrls.perBankRdBursts::10           191909                       # Per bank write bursts
system.mem_ctrls.perBankRdBursts::11           193846                       # Per bank write bursts
system.mem_ctrls.perBankRdBursts::12           191958                       # Per bank write bursts
system.mem_ctrls.perBankRdBursts::13           192109                       # Per bank write bursts
system.mem_ctrls.perBankRdBursts::14           191705                       # Per bank write bursts
system.mem_ctrls.perBankRdBursts::15           191213                       # Per bank write bursts
system.mem_ctrls.perBankWrBursts::0             90785                       # Per bank write bursts
system.mem_ctrls.perBankWrBursts::1             90401                       # Per bank write bursts
system.mem_ctrls.perBankWrBursts::2             90829                       # Per bank write bursts
system.mem_ctrls.perBankWrBursts::3             89796                       # Per bank write bursts
system.mem_ctrls.perBankWrBursts::4             89624                       # Per bank write bursts
system.mem_ctrls.perBankWrBursts::5             89524                       # Per bank write bursts
system.mem_ctrls.perBankWrBursts::6             90158                       # Per bank write bursts
system.mem_ctrls.perBankWrBursts::7             89841                       # Per bank write bursts
system.mem_ctrls.perBankWrBursts::8             89458                       # Per bank write bursts
system.mem_ctrls.perBankWrBursts::9             90758                       # Per bank write bursts
system.mem_ctrls.perBankWrBursts::10            90648                       # Per bank write bursts
system.mem_ctrls.perBankWrBursts::11            91137                       # Per bank write bursts
system.mem_ctrls.perBankWrBursts::12            90064                       # Per bank write bursts
system.mem_ctrls.perBankWrBursts::13            89987                       # Per bank write bursts
system.mem_ctrls.perBankWrBursts::14            89660                       # Per bank write bursts
system.mem_ctrls.perBankWrBursts::15            90094                       # Per bank write bursts
system.mem_ctrls.numRdRetry                         0                       # Number of times read queue was full causing retry
system.mem_ctrls.numWrRetry                         0                       # Number of times write queue was full causing retry
system.mem_ctrls.totGap                  3070991525500                       # Total gap between requests
system.mem_ctrls.readPktSize::0                     0                       # Read request sizes (log2)
system.mem_ctrls.readPktSize::1                     0                       # Read request sizes (log2)
system.mem_ctrls.readPktSize::2                     0                       # Read request sizes (log2)
system.mem_ctrls.readPktSize::3                     0                       # Read request sizes (log2)
system.mem_ctrls.readPktSize::4                     0                       # Read request sizes (log2)
system.mem_ctrls.readPktSize::5                     0                       # Read request sizes (log2)
system.mem_ctrls.readPktSize::6               3062673                       # Read request sizes (log2)
system.mem_ctrls.writePktSize::0                    0                       # Write request sizes (log2)
system.mem_ctrls.writePktSize::1                    0                       # Write request sizes (log2)
system.mem_ctrls.writePktSize::2                    0                       # Write request sizes (log2)
system.mem_ctrls.writePktSize::3                    0                       # Write request sizes (log2)
system.mem_ctrls.writePktSize::4                    0                       # Write request sizes (log2)
system.mem_ctrls.writePktSize::5                    0                       # Write request sizes (log2)
system.mem_ctrls.writePktSize::6              1442783                       # Write request sizes (log2)
system.mem_ctrls.rdQLenPdf::0                 1992451                       # What read queue length does an incoming req see
system.mem_ctrls.rdQLenPdf::1                  449277                       # What read queue length does an incoming req see
system.mem_ctrls.rdQLenPdf::2                  283563                       # What read queue length does an incoming req see
system.mem_ctrls.rdQLenPdf::3                  152605                       # What read queue length does an incoming req see
system.mem_ctrls.rdQLenPdf::4                   81476                       # What read queue length does an incoming req see
system.mem_ctrls.rdQLenPdf::5                   51215                       # What read queue length does an incoming req see
system.mem_ctrls.rdQLenPdf::6                   33583                       # What read queue length does an incoming req see
system.mem_ctrls.rdQLenPdf::7                   16205                       # What read queue length does an incoming req see
system.mem_ctrls.rdQLenPdf::8                       2                       # What read queue length does an incoming req see
system.mem_ctrls.rdQLenPdf::9                       0                       # What read queue length does an incoming req see
system.mem_ctrls.rdQLenPdf::10                      0                       # What read queue length does an incoming req see
system.mem_ctrls.rdQLenPdf::11                      0                       # What read queue length does an incoming req see
system.mem_ctrls.rdQLenPdf::12                      0                       # What read queue length does an incoming req see
system.mem_ctrls.rdQLenPdf::13                      0                       # What read queue length does an incoming req see
system.mem_ctrls.rdQLenPdf::14                      0                       # What read queue length does an incoming req see
system.mem_ctrls.rdQLenPdf::15                      0                       # What read queue length does an incoming req see
system.mem_ctrls.rdQLenPdf::16                      0                       # What read queue length does an incoming req see
system.mem_ctrls.rdQLenPdf::17                      0                       # What read queue length does an incoming req see
system.mem_ctrls.rdQLenPdf::18                      0                       # What read queue length does an incoming req see
system.mem_ctrls.rdQLenPdf::19                      0                       # What read queue length does an incoming req see
system.mem_ctrls.rdQLenPdf::20                      0                       # What read queue length does an incoming req see
system.mem_ctrls.rdQLenPdf::21                      0                       # What read queue length does an incoming req see
system.mem_ctrls.rdQLenPdf::22                      0                       # What read queue length does an incoming req see
system.mem_ctrls.rdQLenPdf::23                      0                       # What read queue length does an incoming req see
system.mem_ctrls.rdQLenPdf::24                      0                       # What read queue length does an incoming req see
system.mem_ctrls.rdQLenPdf::25                      0                       # What read queue length does an incoming req see
system.mem_ctrls.rdQLenPdf::26                      0                       # What read queue length does an incoming req see
system.mem_ctrls.rdQLenPdf::27                      0                       # What read queue length does an incoming req see
system.mem_ctrls.rdQLenPdf::28                      0                       # What read queue length does an incoming req see
system.mem_ctrls.rdQLenPdf::29                      0                       # What read queue length does an incoming req see
system.mem_ctrls.rdQLenPdf::30                      0                       # What read queue length does an incoming req see
system.mem_ctrls.rdQLenPdf::31                      0                       # What read queue length does an incoming req see
system.mem_ctrls.wrQLenPdf::0                       1                       # What write queue length does an incoming req see
system.mem_ctrls.wrQLenPdf::1                       1                       # What write queue length does an incoming req see
system.mem_ctrls.wrQLenPdf::2                       1                       # What write queue length does an incoming req see
system.mem_ctrls.wrQLenPdf::3                       1                       # What write queue length does an incoming req see
system.mem_ctrls.wrQLenPdf::4                       1                       # What write queue length does an incoming req see
system.mem_ctrls.wrQLenPdf::5                       1                       # What write queue length does an incoming req see
system.mem_ctrls.wrQLenPdf::6                       1                       # What write queue length does an incoming req see
system.mem_ctrls.wrQLenPdf::7                       1                       # What write queue length does an incoming req see
system.mem_ctrls.wrQLenPdf::8                       1                       # What write queue length does an incoming req see
system.mem_ctrls.wrQLenPdf::9                       1                       # What write queue length does an incoming req see
system.mem_ctrls.wrQLenPdf::10                      1                       # What write queue length does an incoming req see
system.mem_ctrls.wrQLenPdf::11                      1                       # What write queue length does an incoming req see
system.mem_ctrls.wrQLenPdf::12                      1                       # What write queue length does an incoming req see
system.mem_ctrls.wrQLenPdf::13                      1                       # What write queue length does an incoming req see
system.mem_ctrls.wrQLenPdf::14                      1                       # What write queue length does an incoming req see
system.mem_ctrls.wrQLenPdf::15                   2139                       # What write queue length does an incoming req see
system.mem_ctrls.wrQLenPdf::16                   2381                       # What write queue length does an incoming req see
system.mem_ctrls.wrQLenPdf::17                  43704                       # What write queue length does an incoming req see
system.mem_ctrls.wrQLenPdf::18                  53919                       # What write queue length does an incoming req see
system.mem_ctrls.wrQLenPdf::19                  65604                       # What write queue length does an incoming req see
system.mem_ctrls.wrQLenPdf::20                  78375                       # What write queue length does an incoming req see
system.mem_ctrls.wrQLenPdf::21                  89148                       # What write queue length does an incoming req see
system.mem_ctrls.wrQLenPdf::22                  96833                       # What write queue length does an incoming req see
system.mem_ctrls.wrQLenPdf::23                 101073                       # What write queue length does an incoming req see
system.mem_ctrls.wrQLenPdf::24                 103178                       # What write queue length does an incoming req see
system.mem_ctrls.wrQLenPdf::25                 103099                       # What write queue length does an incoming req see
system.mem_ctrls.wrQLenPdf::26                 102334                       # What write queue length does an incoming req see
system.mem_ctrls.wrQLenPdf::27                 101002                       # What write queue length does an incoming req see
system.mem_ctrls.wrQLenPdf::28                  99433                       # What write queue length does an incoming req see
system.mem_ctrls.wrQLenPdf::29                  98523                       # What write queue length does an incoming req see
system.mem_ctrls.wrQLenPdf::30                  98600                       # What write queue length does an incoming req see
system.mem_ctrls.wrQLenPdf::31                  97930                       # What write queue length does an incoming req see
system.mem_ctrls.wrQLenPdf::32                  97028                       # What write queue length does an incoming req see
system.mem_ctrls.wrQLenPdf::33                   4688                       # What write queue length does an incoming req see
system.mem_ctrls.wrQLenPdf::34                   1842                       # What write queue length does an incoming req see
system.mem_ctrls.wrQLenPdf::35                    950                       # What write queue length does an incoming req see
system.mem_ctrls.wrQLenPdf::36                    511                       # What write queue length does an incoming req see
system.mem_ctrls.wrQLenPdf::37                    249                       # What write queue length does an incoming req see
system.mem_ctrls.wrQLenPdf::38                    114                       # What write queue length does an incoming req see
system.mem_ctrls.wrQLenPdf::39                     54                       # What write queue length does an incoming req see
system.mem_ctrls.wrQLenPdf::40                     26                       # What write queue length does an incoming req see
system.mem_ctrls.wrQLenPdf::41                     14                       # What write queue length does an incoming req see
system.mem_ctrls.wrQLenPdf::42                      7                       # What write queue length does an incoming req see
system.mem_ctrls.wrQLenPdf::43                      3                       # What write queue length does an incoming req see
system.mem_ctrls.wrQLenPdf::44                      2                       # What write queue length does an incoming req see
system.mem_ctrls.wrQLenPdf::45                      1                       # What write queue length does an incoming req see
system.mem_ctrls.wrQLenPdf::46                      1                       # What write queue length does an incoming req see
system.mem_ctrls.wrQLenPdf::47                      1                       # What write queue length does an incoming req see
system.mem_ctrls.wrQLenPdf::48                      1                       # What write queue length does an incoming req see
system.mem_ctrls.wrQLenPdf::49                      0                       # What write queue length does an incoming req see
system.mem_ctrls.wrQLenPdf::50                      0                       # What write queue length does an incoming req see
system.mem_ctrls.wrQLenPdf::51                      0                       # What write queue length does an incoming req see
system.mem_ctrls.wrQLenPdf::52                      0                       # What write queue length does an incoming req see
system.mem_ctrls.wrQLenPdf::53                      0                       # What write queue length does an incoming req see
system.mem_ctrls.wrQLenPdf::54                      0                       # What write queue length does an incoming req see
system.mem_ctrls.wrQLenPdf::55                      0                       # What write queue length does an incoming req see
system.mem_ctrls.wrQLenPdf::56                      0                       # What write queue length does an incoming req see
system.mem_ctrls.wrQLenPdf::57                      0                       # What write queue length does an incoming req see
system.mem_ctrls.wrQLenPdf::58                      0                       # What write queue length does an incoming req see
system.mem_ctrls.wrQLenPdf::59                      0                       # What write queue length does an incoming req see
system.mem_ctrls.wrQLenPdf::60                      0                       # What write queue length does an incoming req see
system.mem_ctrls.wrQLenPdf::61                      0                       # What write queue length does an incoming req see
system.mem_ctrls.wrQLenPdf::62                      0                       # What write queue length does an incoming req see
system.mem_ctrls.wrQLenPdf::63                      0                       # What write queue length does an incoming req see
system.mem_ctrls.bytesPerActivate::samples      1971174                       # Bytes accessed per row activation
system.mem_ctrls.bytesPerActivate::mean    146.207545                       # Bytes accessed per row activation
system.mem_ctrls.bytesPerActivate::gmean   104.316606                       # Bytes accessed per row activation
system.mem_ctrls.bytesPerActivate::stdev   161.823545                       # Bytes accessed per row activation
system.mem_ctrls.bytesPerActivate::0-127      1227651     62.28%     62.28% # Bytes accessed per row activation
system.mem_ctrls.bytesPerActivate::128-255       392094     19.89%     82.17% # Bytes accessed per row activation
system.mem_ctrls.bytesPerActivate::256-383       186050      9.44%     91.61% # Bytes accessed per row activation
system.mem_ctrls.bytesPerActivate::384-511        59629      3.03%     94.64% # Bytes accessed per row activation
system.mem_ctrls.bytesPerActivate::512-639        39896      2.02%     96.66% # Bytes accessed per row activation
system.mem_ctrls.bytesPerActivate::640-767        27215      1.38%     98.04% # Bytes accessed per row activation
system.mem_ctrls.bytesPerActivate::768-895        18456      0.94%     98.98% # Bytes accessed per row activation
system.mem_ctrls.bytesPerActivate::896-1023        11142      0.57%     99.54% # Bytes accessed per row activation
system.mem_ctrls.bytesPerActivate::1024-1151         9041      0.46%    100.00% # Bytes accessed per row activation
system.mem_ctrls.bytesPerActivate::total      1971174                       # Bytes accessed per row activation
system.mem_ctrls.rdPerTurnAround::samples        89849                       # Reads before turning the bus around for writes
system.mem_ctrls.rdPerTurnAround::mean      34.061303                       # Reads before turning the bus around for writes
system.mem_ctrls.rdPerTurnAround::gmean     27.353724                       # Reads before turning the bus around for writes
system.mem_ctrls.rdPerTurnAround::stdev   1118.523285                       # Reads before turning the bus around for writes
system.mem_ctrls.rdPerTurnAround::0-16383        89848    100.00%    100.00% # Reads before turning the bus around for writes
system.mem_ctrls.rdPerTurnAround::327680-344063            1      0.00%    100.00% # Reads before turning the bus around for writes
system.mem_ctrls.rdPerTurnAround::total         89849                       # Reads before turning the bus around for writes
system.mem_ctrls.wrPerTurnAround::samples        89849                       # Writes before turning the bus around for reads
system.mem_ctrls.wrPerTurnAround::mean      16.057652                       # Writes before turning the bus around for reads
system.mem_ctrls.wrPerTurnAround::gmean     16.054127                       # Writes before turning the bus around for reads
system.mem_ctrls.wrPerTurnAround::stdev      0.351918                       # Writes before turning the bus around for reads
system.mem_ctrls.wrPerTurnAround::16            87319     97.18%     97.18% # Writes before turning the bus around for reads
system.mem_ctrls.wrPerTurnAround::17              223      0.25%     97.43% # Writes before turning the bus around for reads
system.mem_ctrls.wrPerTurnAround::18             2060      2.29%     99.73% # Writes before turning the bus around for reads
system.mem_ctrls.wrPerTurnAround::19              177      0.20%     99.92% # Writes before turning the bus around for reads
system.mem_ctrls.wrPerTurnAround::20               51      0.06%     99.98% # Writes before turning the bus around for reads
system.mem_ctrls.wrPerTurnAround::21               13      0.01%     99.99% # Writes before turning the bus around for reads
system.mem_ctrls.wrPerTurnAround::22                5      0.01%    100.00% # Writes before turning the bus around for reads
system.mem_ctrls.wrPerTurnAround::23                1      0.00%    100.00% # Writes before turning the bus around for reads
system.mem_ctrls.wrPerTurnAround::total         89849                       # Writes before turning the bus around for reads
system.mem_ctrls.totQLat                  94259413877                       # Total ticks spent queuing
system.mem_ctrls.totMemAccLat            151641482627                       # Total ticks spent from burst creation until serviced by the DRAM
system.mem_ctrls.totBusLat                15301885000                       # Total ticks spent in databus transfers
system.mem_ctrls.avgQLat                     30799.94                       # Average queueing delay per DRAM burst
system.mem_ctrls.avgBusLat                    5000.00                       # Average bus latency per DRAM burst
system.mem_ctrls.avgMemAccLat                49549.94                       # Average memory access latency per DRAM burst
system.mem_ctrls.avgRdBW                        63.78                       # Average DRAM read bandwidth in MiByte/s
system.mem_ctrls.avgWrBW                        30.07                       # Average achieved write bandwidth in MiByte/s
system.mem_ctrls.avgRdBWSys                     63.83                       # Average system read bandwidth in MiByte/s
system.mem_ctrls.avgWrBWSys                     30.07                       # Average system write bandwidth in MiByte/s
system.mem_ctrls.peakBW                      12800.00                       # Theoretical peak bandwidth in MiByte/s
system.mem_ctrls.busUtil                         0.73                       # Data bus utilization in percentage
system.mem_ctrls.busUtilRead                     0.50                       # Data bus utilization in percentage for reads
system.mem_ctrls.busUtilWrite                    0.23                       # Data bus utilization in percentage for writes
system.mem_ctrls.avgRdQLen                       1.04                       # Average read queue length when enqueuing
system.mem_ctrls.avgWrQLen                      21.89                       # Average write queue length when enqueuing
system.mem_ctrls.readRowHits                  2032117                       # Number of row buffer hits during reads
system.mem_ctrls.writeRowHits                  499842                       # Number of row buffer hits during writes
system.mem_ctrls.readRowHitRate                 66.40                       # Row buffer hit rate for reads
system.mem_ctrls.writeRowHitRate                34.64                       # Row buffer hit rate for writes
system.mem_ctrls.avgGap                     681616.14                       # Average gap between requests
system.mem_ctrls.pageHitRate                    56.23                       # Row buffer hit rate, read and write combined
system.mem_ctrls_0.actEnergy               7454560680                       # Energy for activate commands per rank (pJ)
system.mem_ctrls_0.preEnergy               4067468625                       # Energy for precharge commands per rank (pJ)
system.mem_ctrls_0.readEnergy             11889898800                       # Energy for read commands per rank (pJ)
system.mem_ctrls_0.writeEnergy             4671743040                       # Energy for write commands per rank (pJ)
system.mem_ctrls_0.refreshEnergy         200582166720                       # Energy for refresh commands per rank (pJ)
system.mem_ctrls_0.actBackEnergy         585077455035                       # Energy for active background per rank (pJ)
system.mem_ctrls_0.preBackEnergy         1329368579250                       # Energy for precharge background per rank (pJ)
system.mem_ctrls_0.totalEnergy           2143111872150                       # Total energy per rank (pJ)
system.mem_ctrls_0.averagePower            697.856843                       # Core power per rank (mW)
system.mem_ctrls_0.memoryStateTime::IDLE 2207838054502                       # Time in different power states
system.mem_ctrls_0.memoryStateTime::REF  102547120000                       # Time in different power states
system.mem_ctrls_0.memoryStateTime::PRE_PDN            0                       # Time in different power states
system.mem_ctrls_0.memoryStateTime::ACT  760605929498                       # Time in different power states
system.mem_ctrls_0.memoryStateTime::ACT_PDN            0                       # Time in different power states
system.mem_ctrls_1.actEnergy               7447416480                       # Energy for activate commands per rank (pJ)
system.mem_ctrls_1.preEnergy               4063570500                       # Energy for precharge commands per rank (pJ)
system.mem_ctrls_1.readEnergy             11980987200                       # Energy for read commands per rank (pJ)
system.mem_ctrls_1.writeEnergy             4677264000                       # Energy for write commands per rank (pJ)
system.mem_ctrls_1.refreshEnergy         200582166720                       # Energy for refresh commands per rank (pJ)
system.mem_ctrls_1.actBackEnergy         587876018805                       # Energy for active background per rank (pJ)
system.mem_ctrls_1.preBackEnergy         1326913698750                       # Energy for precharge background per rank (pJ)
system.mem_ctrls_1.totalEnergy           2143541122455                       # Total energy per rank (pJ)
system.mem_ctrls_1.averagePower            697.996619                       # Core power per rank (mW)
system.mem_ctrls_1.memoryStateTime::IDLE 2203727716252                       # Time in different power states
system.mem_ctrls_1.memoryStateTime::REF  102547120000                       # Time in different power states
system.mem_ctrls_1.memoryStateTime::PRE_PDN            0                       # Time in different power states
system.mem_ctrls_1.memoryStateTime::ACT  764715872498                       # Time in different power states
system.mem_ctrls_1.memoryStateTime::ACT_PDN            0                       # Time in different power states
system.cpu_voltage_domain.voltage                   1                       # Voltage in Volts
system.cpu_clk_domain.clock                       500                       # Clock period in ticks
system.cpu0.apic_clk_domain.clock                8000                       # Clock period in ticks
system.cpu0.workload.num_syscalls                 352                       # Number of system calls
system.cpu0.numCycles                      6141983212                       # number of cpu cycles simulated
system.cpu0.numWorkItemsStarted                     0                       # number of work items this cpu started
system.cpu0.numWorkItemsCompleted                   0                       # number of work items this cpu completed
system.cpu0.committedInsts                 1699256521                       # Number of instructions committed
system.cpu0.committedOps                   4846753078                       # Number of ops (including micro ops) committed
system.cpu0.num_int_alu_accesses           4572852981                       # Number of integer alu accesses
system.cpu0.num_fp_alu_accesses             116281295                       # Number of float alu accesses
system.cpu0.num_func_calls                  163074940                       # number of times a function call or return occured
system.cpu0.num_conditional_control_insts    374543945                       # number of instructions that are conditional controls
system.cpu0.num_int_insts                  4572852981                       # number of integer instructions
system.cpu0.num_fp_insts                    116281295                       # number of float instructions
system.cpu0.num_int_register_reads         9634938422                       # number of times the integer registers were read
system.cpu0.num_int_register_writes        4554635332                       # number of times the integer registers were written
system.cpu0.num_fp_register_reads           186868631                       # number of times the floating registers were read
system.cpu0.num_fp_register_writes           91388910                       # number of times the floating registers were written
system.cpu0.num_cc_register_reads          3870860213                       # number of times the CC registers were read
system.cpu0.num_cc_register_writes         1451273068                       # number of times the CC registers were written
system.cpu0.num_mem_refs                    740412461                       # number of memory refs
system.cpu0.num_load_insts                  450330709                       # Number of load instructions
system.cpu0.num_store_insts                 290081752                       # Number of store instructions
system.cpu0.num_idle_cycles                  0.002000                       # Number of idle cycles
system.cpu0.num_busy_cycles              6141983211.998000                       # Number of busy cycles
system.cpu0.not_idle_fraction                1.000000                       # Percentage of non-idle cycles
system.cpu0.idle_fraction                    0.000000                       # Percentage of idle cycles
system.cpu0.Branches                        615796919                       # Number of branches fetched
system.cpu0.op_class::No_OpClass             94599458      1.95%      1.95% # Class of executed instruction
system.cpu0.op_class::IntAlu               3513055257     72.48%     74.43% # Class of executed instruction
system.cpu0.op_class::IntMult                     490      0.00%     74.43% # Class of executed instruction
system.cpu0.op_class::IntDiv                407297348      8.40%     82.84% # Class of executed instruction
system.cpu0.op_class::FloatAdd               91388064      1.89%     84.72% # Class of executed instruction
system.cpu0.op_class::FloatCmp                      0      0.00%     84.72% # Class of executed instruction
system.cpu0.op_class::FloatCvt                      0      0.00%     84.72% # Class of executed instruction
system.cpu0.op_class::FloatMult                     0      0.00%     84.72% # Class of executed instruction
system.cpu0.op_class::FloatDiv                      0      0.00%     84.72% # Class of executed instruction
system.cpu0.op_class::FloatSqrt                     0      0.00%     84.72% # Class of executed instruction
system.cpu0.op_class::SimdAdd                       0      0.00%     84.72% # Class of executed instruction
system.cpu0.op_class::SimdAddAcc                    0      0.00%     84.72% # Class of executed instruction
system.cpu0.op_class::SimdAlu                       0      0.00%     84.72% # Class of executed instruction
system.cpu0.op_class::SimdCmp                       0      0.00%     84.72% # Class of executed instruction
system.cpu0.op_class::SimdCvt                       0      0.00%     84.72% # Class of executed instruction
system.cpu0.op_class::SimdMisc                      0      0.00%     84.72% # Class of executed instruction
system.cpu0.op_class::SimdMult                      0      0.00%     84.72% # Class of executed instruction
system.cpu0.op_class::SimdMultAcc                   0      0.00%     84.72% # Class of executed instruction
system.cpu0.op_class::SimdShift                     0      0.00%     84.72% # Class of executed instruction
system.cpu0.op_class::SimdShiftAcc                  0      0.00%     84.72% # Class of executed instruction
system.cpu0.op_class::SimdSqrt                      0      0.00%     84.72% # Class of executed instruction
system.cpu0.op_class::SimdFloatAdd                  0      0.00%     84.72% # Class of executed instruction
system.cpu0.op_class::SimdFloatAlu                  0      0.00%     84.72% # Class of executed instruction
system.cpu0.op_class::SimdFloatCmp                  0      0.00%     84.72% # Class of executed instruction
system.cpu0.op_class::SimdFloatCvt                  0      0.00%     84.72% # Class of executed instruction
system.cpu0.op_class::SimdFloatDiv                  0      0.00%     84.72% # Class of executed instruction
system.cpu0.op_class::SimdFloatMisc                 0      0.00%     84.72% # Class of executed instruction
system.cpu0.op_class::SimdFloatMult                 0      0.00%     84.72% # Class of executed instruction
system.cpu0.op_class::SimdFloatMultAcc              0      0.00%     84.72% # Class of executed instruction
system.cpu0.op_class::SimdFloatSqrt                 0      0.00%     84.72% # Class of executed instruction
system.cpu0.op_class::MemRead               450330709      9.29%     94.01% # Class of executed instruction
system.cpu0.op_class::MemWrite              290081752      5.99%    100.00% # Class of executed instruction
system.cpu0.op_class::IprAccess                     0      0.00%    100.00% # Class of executed instruction
system.cpu0.op_class::InstPrefetch                  0      0.00%    100.00% # Class of executed instruction
system.cpu0.op_class::total                4846753078                       # Class of executed instruction
system.cpu1.apic_clk_domain.clock                8000                       # Clock period in ticks
system.cpu1.numCycles                      6141591636                       # number of cpu cycles simulated
system.cpu1.numWorkItemsStarted                     0                       # number of work items this cpu started
system.cpu1.numWorkItemsCompleted                   0                       # number of work items this cpu completed
system.cpu1.committedInsts                   21006727                       # Number of instructions committed
system.cpu1.committedOps                     41857777                       # Number of ops (including micro ops) committed
system.cpu1.num_int_alu_accesses             32737317                       # Number of integer alu accesses
system.cpu1.num_fp_alu_accesses              22882035                       # Number of float alu accesses
system.cpu1.num_func_calls                      40531                       # number of times a function call or return occured
system.cpu1.num_conditional_control_insts      2310570                       # number of instructions that are conditional controls
system.cpu1.num_int_insts                    32737317                       # number of integer instructions
system.cpu1.num_fp_insts                     22882035                       # number of float instructions
system.cpu1.num_int_register_reads           63226287                       # number of times the integer registers were read
system.cpu1.num_int_register_writes          16641624                       # number of times the integer registers were written
system.cpu1.num_fp_register_reads            31860914                       # number of times the floating registers were read
system.cpu1.num_fp_register_writes           18261133                       # number of times the floating registers were written
system.cpu1.num_cc_register_reads            13883681                       # number of times the CC registers were read
system.cpu1.num_cc_register_writes           13877327                       # number of times the CC registers were written
system.cpu1.num_mem_refs                     13842900                       # number of memory refs
system.cpu1.num_load_insts                    9201655                       # Number of load instructions
system.cpu1.num_store_insts                   4641245                       # Number of store instructions
system.cpu1.num_idle_cycles              5982077003.344402                       # Number of idle cycles
system.cpu1.num_busy_cycles              159514632.655598                       # Number of busy cycles
system.cpu1.not_idle_fraction                0.025973                       # Percentage of non-idle cycles
system.cpu1.idle_fraction                    0.974027                       # Percentage of idle cycles
system.cpu1.Branches                          2371388                       # Number of branches fetched
system.cpu1.op_class::No_OpClass                    2      0.00%      0.00% # Class of executed instruction
system.cpu1.op_class::IntAlu                 18836785     45.00%     45.00% # Class of executed instruction
system.cpu1.op_class::IntMult                   57612      0.14%     45.14% # Class of executed instruction
system.cpu1.op_class::IntDiv                       14      0.00%     45.14% # Class of executed instruction
system.cpu1.op_class::FloatAdd                9120464     21.79%     66.93% # Class of executed instruction
system.cpu1.op_class::FloatCmp                      0      0.00%     66.93% # Class of executed instruction
system.cpu1.op_class::FloatCvt                      0      0.00%     66.93% # Class of executed instruction
system.cpu1.op_class::FloatMult                     0      0.00%     66.93% # Class of executed instruction
system.cpu1.op_class::FloatDiv                      0      0.00%     66.93% # Class of executed instruction
system.cpu1.op_class::FloatSqrt                     0      0.00%     66.93% # Class of executed instruction
system.cpu1.op_class::SimdAdd                       0      0.00%     66.93% # Class of executed instruction
system.cpu1.op_class::SimdAddAcc                    0      0.00%     66.93% # Class of executed instruction
system.cpu1.op_class::SimdAlu                       0      0.00%     66.93% # Class of executed instruction
system.cpu1.op_class::SimdCmp                       0      0.00%     66.93% # Class of executed instruction
system.cpu1.op_class::SimdCvt                       0      0.00%     66.93% # Class of executed instruction
system.cpu1.op_class::SimdMisc                      0      0.00%     66.93% # Class of executed instruction
system.cpu1.op_class::SimdMult                      0      0.00%     66.93% # Class of executed instruction
system.cpu1.op_class::SimdMultAcc                   0      0.00%     66.93% # Class of executed instruction
system.cpu1.op_class::SimdShift                     0      0.00%     66.93% # Class of executed instruction
system.cpu1.op_class::SimdShiftAcc                  0      0.00%     66.93% # Class of executed instruction
system.cpu1.op_class::SimdSqrt                      0      0.00%     66.93% # Class of executed instruction
system.cpu1.op_class::SimdFloatAdd                  0      0.00%     66.93% # Class of executed instruction
system.cpu1.op_class::SimdFloatAlu                  0      0.00%     66.93% # Class of executed instruction
system.cpu1.op_class::SimdFloatCmp                  0      0.00%     66.93% # Class of executed instruction
system.cpu1.op_class::SimdFloatCvt                  0      0.00%     66.93% # Class of executed instruction
system.cpu1.op_class::SimdFloatDiv                  0      0.00%     66.93% # Class of executed instruction
system.cpu1.op_class::SimdFloatMisc                 0      0.00%     66.93% # Class of executed instruction
system.cpu1.op_class::SimdFloatMult                 0      0.00%     66.93% # Class of executed instruction
system.cpu1.op_class::SimdFloatMultAcc              0      0.00%     66.93% # Class of executed instruction
system.cpu1.op_class::SimdFloatSqrt                 0      0.00%     66.93% # Class of executed instruction
system.cpu1.op_class::MemRead                 9201655     21.98%     88.91% # Class of executed instruction
system.cpu1.op_class::MemWrite                4641245     11.09%    100.00% # Class of executed instruction
system.cpu1.op_class::IprAccess                     0      0.00%    100.00% # Class of executed instruction
system.cpu1.op_class::InstPrefetch                  0      0.00%    100.00% # Class of executed instruction
system.cpu1.op_class::total                  41857777                       # Class of executed instruction
system.cpu2.apic_clk_domain.clock                8000                       # Clock period in ticks
system.cpu2.numCycles                      6141591636                       # number of cpu cycles simulated
system.cpu2.numWorkItemsStarted                     0                       # number of work items this cpu started
system.cpu2.numWorkItemsCompleted                   0                       # number of work items this cpu completed
system.cpu2.committedInsts                   21006727                       # Number of instructions committed
system.cpu2.committedOps                     41857777                       # Number of ops (including micro ops) committed
system.cpu2.num_int_alu_accesses             32737317                       # Number of integer alu accesses
system.cpu2.num_fp_alu_accesses              22882035                       # Number of float alu accesses
system.cpu2.num_func_calls                      40531                       # number of times a function call or return occured
system.cpu2.num_conditional_control_insts      2310570                       # number of instructions that are conditional controls
system.cpu2.num_int_insts                    32737317                       # number of integer instructions
system.cpu2.num_fp_insts                     22882035                       # number of float instructions
system.cpu2.num_int_register_reads           63226287                       # number of times the integer registers were read
system.cpu2.num_int_register_writes          16641624                       # number of times the integer registers were written
system.cpu2.num_fp_register_reads            31860914                       # number of times the floating registers were read
system.cpu2.num_fp_register_writes           18261133                       # number of times the floating registers were written
system.cpu2.num_cc_register_reads            13883681                       # number of times the CC registers were read
system.cpu2.num_cc_register_writes           13877327                       # number of times the CC registers were written
system.cpu2.num_mem_refs                     13842900                       # number of memory refs
system.cpu2.num_load_insts                    9201655                       # Number of load instructions
system.cpu2.num_store_insts                   4641245                       # Number of store instructions
system.cpu2.num_idle_cycles              5982077970.282752                       # Number of idle cycles
system.cpu2.num_busy_cycles              159513665.717248                       # Number of busy cycles
system.cpu2.not_idle_fraction                0.025973                       # Percentage of non-idle cycles
system.cpu2.idle_fraction                    0.974027                       # Percentage of idle cycles
system.cpu2.Branches                          2371388                       # Number of branches fetched
system.cpu2.op_class::No_OpClass                    2      0.00%      0.00% # Class of executed instruction
system.cpu2.op_class::IntAlu                 18836785     45.00%     45.00% # Class of executed instruction
system.cpu2.op_class::IntMult                   57612      0.14%     45.14% # Class of executed instruction
system.cpu2.op_class::IntDiv                       14      0.00%     45.14% # Class of executed instruction
system.cpu2.op_class::FloatAdd                9120464     21.79%     66.93% # Class of executed instruction
system.cpu2.op_class::FloatCmp                      0      0.00%     66.93% # Class of executed instruction
system.cpu2.op_class::FloatCvt                      0      0.00%     66.93% # Class of executed instruction
system.cpu2.op_class::FloatMult                     0      0.00%     66.93% # Class of executed instruction
system.cpu2.op_class::FloatDiv                      0      0.00%     66.93% # Class of executed instruction
system.cpu2.op_class::FloatSqrt                     0      0.00%     66.93% # Class of executed instruction
system.cpu2.op_class::SimdAdd                       0      0.00%     66.93% # Class of executed instruction
system.cpu2.op_class::SimdAddAcc                    0      0.00%     66.93% # Class of executed instruction
system.cpu2.op_class::SimdAlu                       0      0.00%     66.93% # Class of executed instruction
system.cpu2.op_class::SimdCmp                       0      0.00%     66.93% # Class of executed instruction
system.cpu2.op_class::SimdCvt                       0      0.00%     66.93% # Class of executed instruction
system.cpu2.op_class::SimdMisc                      0      0.00%     66.93% # Class of executed instruction
system.cpu2.op_class::SimdMult                      0      0.00%     66.93% # Class of executed instruction
system.cpu2.op_class::SimdMultAcc                   0      0.00%     66.93% # Class of executed instruction
system.cpu2.op_class::SimdShift                     0      0.00%     66.93% # Class of executed instruction
system.cpu2.op_class::SimdShiftAcc                  0      0.00%     66.93% # Class of executed instruction
system.cpu2.op_class::SimdSqrt                      0      0.00%     66.93% # Class of executed instruction
system.cpu2.op_class::SimdFloatAdd                  0      0.00%     66.93% # Class of executed instruction
system.cpu2.op_class::SimdFloatAlu                  0      0.00%     66.93% # Class of executed instruction
system.cpu2.op_class::SimdFloatCmp                  0      0.00%     66.93% # Class of executed instruction
system.cpu2.op_class::SimdFloatCvt                  0      0.00%     66.93% # Class of executed instruction
system.cpu2.op_class::SimdFloatDiv                  0      0.00%     66.93% # Class of executed instruction
system.cpu2.op_class::SimdFloatMisc                 0      0.00%     66.93% # Class of executed instruction
system.cpu2.op_class::SimdFloatMult                 0      0.00%     66.93% # Class of executed instruction
system.cpu2.op_class::SimdFloatMultAcc              0      0.00%     66.93% # Class of executed instruction
system.cpu2.op_class::SimdFloatSqrt                 0      0.00%     66.93% # Class of executed instruction
system.cpu2.op_class::MemRead                 9201655     21.98%     88.91% # Class of executed instruction
system.cpu2.op_class::MemWrite                4641245     11.09%    100.00% # Class of executed instruction
system.cpu2.op_class::IprAccess                     0      0.00%    100.00% # Class of executed instruction
system.cpu2.op_class::InstPrefetch                  0      0.00%    100.00% # Class of executed instruction
system.cpu2.op_class::total                  41857777                       # Class of executed instruction
system.cpu3.apic_clk_domain.clock                8000                       # Clock period in ticks
system.cpu3.numCycles                      6141592754                       # number of cpu cycles simulated
system.cpu3.numWorkItemsStarted                     0                       # number of work items this cpu started
system.cpu3.numWorkItemsCompleted                   0                       # number of work items this cpu completed
system.cpu3.committedInsts                   21006727                       # Number of instructions committed
system.cpu3.committedOps                     41857777                       # Number of ops (including micro ops) committed
system.cpu3.num_int_alu_accesses             32737317                       # Number of integer alu accesses
system.cpu3.num_fp_alu_accesses              22882035                       # Number of float alu accesses
system.cpu3.num_func_calls                      40531                       # number of times a function call or return occured
system.cpu3.num_conditional_control_insts      2310570                       # number of instructions that are conditional controls
system.cpu3.num_int_insts                    32737317                       # number of integer instructions
system.cpu3.num_fp_insts                     22882035                       # number of float instructions
system.cpu3.num_int_register_reads           63226287                       # number of times the integer registers were read
system.cpu3.num_int_register_writes          16641624                       # number of times the integer registers were written
system.cpu3.num_fp_register_reads            31860914                       # number of times the floating registers were read
system.cpu3.num_fp_register_writes           18261133                       # number of times the floating registers were written
system.cpu3.num_cc_register_reads            13883681                       # number of times the CC registers were read
system.cpu3.num_cc_register_writes           13877327                       # number of times the CC registers were written
system.cpu3.num_mem_refs                     13842900                       # number of memory refs
system.cpu3.num_load_insts                    9201655                       # Number of load instructions
system.cpu3.num_store_insts                   4641245                       # Number of store instructions
system.cpu3.num_idle_cycles              5982078754.264672                       # Number of idle cycles
system.cpu3.num_busy_cycles              159513999.735328                       # Number of busy cycles
system.cpu3.not_idle_fraction                0.025973                       # Percentage of non-idle cycles
system.cpu3.idle_fraction                    0.974027                       # Percentage of idle cycles
system.cpu3.Branches                          2371388                       # Number of branches fetched
system.cpu3.op_class::No_OpClass                    2      0.00%      0.00% # Class of executed instruction
system.cpu3.op_class::IntAlu                 18836785     45.00%     45.00% # Class of executed instruction
system.cpu3.op_class::IntMult                   57612      0.14%     45.14% # Class of executed instruction
system.cpu3.op_class::IntDiv                       14      0.00%     45.14% # Class of executed instruction
system.cpu3.op_class::FloatAdd                9120464     21.79%     66.93% # Class of executed instruction
system.cpu3.op_class::FloatCmp                      0      0.00%     66.93% # Class of executed instruction
system.cpu3.op_class::FloatCvt                      0      0.00%     66.93% # Class of executed instruction
system.cpu3.op_class::FloatMult                     0      0.00%     66.93% # Class of executed instruction
system.cpu3.op_class::FloatDiv                      0      0.00%     66.93% # Class of executed instruction
system.cpu3.op_class::FloatSqrt                     0      0.00%     66.93% # Class of executed instruction
system.cpu3.op_class::SimdAdd                       0      0.00%     66.93% # Class of executed instruction
system.cpu3.op_class::SimdAddAcc                    0      0.00%     66.93% # Class of executed instruction
system.cpu3.op_class::SimdAlu                       0      0.00%     66.93% # Class of executed instruction
system.cpu3.op_class::SimdCmp                       0      0.00%     66.93% # Class of executed instruction
system.cpu3.op_class::SimdCvt                       0      0.00%     66.93% # Class of executed instruction
system.cpu3.op_class::SimdMisc                      0      0.00%     66.93% # Class of executed instruction
system.cpu3.op_class::SimdMult                      0      0.00%     66.93% # Class of executed instruction
system.cpu3.op_class::SimdMultAcc                   0      0.00%     66.93% # Class of executed instruction
system.cpu3.op_class::SimdShift                     0      0.00%     66.93% # Class of executed instruction
system.cpu3.op_class::SimdShiftAcc                  0      0.00%     66.93% # Class of executed instruction
system.cpu3.op_class::SimdSqrt                      0      0.00%     66.93% # Class of executed instruction
system.cpu3.op_class::SimdFloatAdd                  0      0.00%     66.93% # Class of executed instruction
system.cpu3.op_class::SimdFloatAlu                  0      0.00%     66.93% # Class of executed instruction
system.cpu3.op_class::SimdFloatCmp                  0      0.00%     66.93% # Class of executed instruction
system.cpu3.op_class::SimdFloatCvt                  0      0.00%     66.93% # Class of executed instruction
system.cpu3.op_class::SimdFloatDiv                  0      0.00%     66.93% # Class of executed instruction
system.cpu3.op_class::SimdFloatMisc                 0      0.00%     66.93% # Class of executed instruction
system.cpu3.op_class::SimdFloatMult                 0      0.00%     66.93% # Class of executed instruction
system.cpu3.op_class::SimdFloatMultAcc              0      0.00%     66.93% # Class of executed instruction
system.cpu3.op_class::SimdFloatSqrt                 0      0.00%     66.93% # Class of executed instruction
system.cpu3.op_class::MemRead                 9201655     21.98%     88.91% # Class of executed instruction
system.cpu3.op_class::MemWrite                4641245     11.09%    100.00% # Class of executed instruction
system.cpu3.op_class::IprAccess                     0      0.00%    100.00% # Class of executed instruction
system.cpu3.op_class::InstPrefetch                  0      0.00%    100.00% # Class of executed instruction
system.cpu3.op_class::total                  41857777                       # Class of executed instruction
system.cpu4.apic_clk_domain.clock                8000                       # Clock period in ticks
system.cpu4.numCycles                      6141591649                       # number of cpu cycles simulated
system.cpu4.numWorkItemsStarted                     0                       # number of work items this cpu started
system.cpu4.numWorkItemsCompleted                   0                       # number of work items this cpu completed
system.cpu4.committedInsts                   21006727                       # Number of instructions committed
system.cpu4.committedOps                     41857777                       # Number of ops (including micro ops) committed
system.cpu4.num_int_alu_accesses             32737317                       # Number of integer alu accesses
system.cpu4.num_fp_alu_accesses              22882035                       # Number of float alu accesses
system.cpu4.num_func_calls                      40531                       # number of times a function call or return occured
system.cpu4.num_conditional_control_insts      2310570                       # number of instructions that are conditional controls
system.cpu4.num_int_insts                    32737317                       # number of integer instructions
system.cpu4.num_fp_insts                     22882035                       # number of float instructions
system.cpu4.num_int_register_reads           63226287                       # number of times the integer registers were read
system.cpu4.num_int_register_writes          16641624                       # number of times the integer registers were written
system.cpu4.num_fp_register_reads            31860914                       # number of times the floating registers were read
system.cpu4.num_fp_register_writes           18261133                       # number of times the floating registers were written
system.cpu4.num_cc_register_reads            13883681                       # number of times the CC registers were read
system.cpu4.num_cc_register_writes           13877327                       # number of times the CC registers were written
system.cpu4.num_mem_refs                     13842900                       # number of memory refs
system.cpu4.num_load_insts                    9201655                       # Number of load instructions
system.cpu4.num_store_insts                   4641245                       # Number of store instructions
system.cpu4.num_idle_cycles              5982079395.855025                       # Number of idle cycles
system.cpu4.num_busy_cycles              159512253.144974                       # Number of busy cycles
system.cpu4.not_idle_fraction                0.025972                       # Percentage of non-idle cycles
system.cpu4.idle_fraction                    0.974028                       # Percentage of idle cycles
system.cpu4.Branches                          2371388                       # Number of branches fetched
system.cpu4.op_class::No_OpClass                    2      0.00%      0.00% # Class of executed instruction
system.cpu4.op_class::IntAlu                 18836785     45.00%     45.00% # Class of executed instruction
system.cpu4.op_class::IntMult                   57612      0.14%     45.14% # Class of executed instruction
system.cpu4.op_class::IntDiv                       14      0.00%     45.14% # Class of executed instruction
system.cpu4.op_class::FloatAdd                9120464     21.79%     66.93% # Class of executed instruction
system.cpu4.op_class::FloatCmp                      0      0.00%     66.93% # Class of executed instruction
system.cpu4.op_class::FloatCvt                      0      0.00%     66.93% # Class of executed instruction
system.cpu4.op_class::FloatMult                     0      0.00%     66.93% # Class of executed instruction
system.cpu4.op_class::FloatDiv                      0      0.00%     66.93% # Class of executed instruction
system.cpu4.op_class::FloatSqrt                     0      0.00%     66.93% # Class of executed instruction
system.cpu4.op_class::SimdAdd                       0      0.00%     66.93% # Class of executed instruction
system.cpu4.op_class::SimdAddAcc                    0      0.00%     66.93% # Class of executed instruction
system.cpu4.op_class::SimdAlu                       0      0.00%     66.93% # Class of executed instruction
system.cpu4.op_class::SimdCmp                       0      0.00%     66.93% # Class of executed instruction
system.cpu4.op_class::SimdCvt                       0      0.00%     66.93% # Class of executed instruction
system.cpu4.op_class::SimdMisc                      0      0.00%     66.93% # Class of executed instruction
system.cpu4.op_class::SimdMult                      0      0.00%     66.93% # Class of executed instruction
system.cpu4.op_class::SimdMultAcc                   0      0.00%     66.93% # Class of executed instruction
system.cpu4.op_class::SimdShift                     0      0.00%     66.93% # Class of executed instruction
system.cpu4.op_class::SimdShiftAcc                  0      0.00%     66.93% # Class of executed instruction
system.cpu4.op_class::SimdSqrt                      0      0.00%     66.93% # Class of executed instruction
system.cpu4.op_class::SimdFloatAdd                  0      0.00%     66.93% # Class of executed instruction
system.cpu4.op_class::SimdFloatAlu                  0      0.00%     66.93% # Class of executed instruction
system.cpu4.op_class::SimdFloatCmp                  0      0.00%     66.93% # Class of executed instruction
system.cpu4.op_class::SimdFloatCvt                  0      0.00%     66.93% # Class of executed instruction
system.cpu4.op_class::SimdFloatDiv                  0      0.00%     66.93% # Class of executed instruction
system.cpu4.op_class::SimdFloatMisc                 0      0.00%     66.93% # Class of executed instruction
system.cpu4.op_class::SimdFloatMult                 0      0.00%     66.93% # Class of executed instruction
system.cpu4.op_class::SimdFloatMultAcc              0      0.00%     66.93% # Class of executed instruction
system.cpu4.op_class::SimdFloatSqrt                 0      0.00%     66.93% # Class of executed instruction
system.cpu4.op_class::MemRead                 9201655     21.98%     88.91% # Class of executed instruction
system.cpu4.op_class::MemWrite                4641245     11.09%    100.00% # Class of executed instruction
system.cpu4.op_class::IprAccess                     0      0.00%    100.00% # Class of executed instruction
system.cpu4.op_class::InstPrefetch                  0      0.00%    100.00% # Class of executed instruction
system.cpu4.op_class::total                  41857777                       # Class of executed instruction
system.cpu5.apic_clk_domain.clock                8000                       # Clock period in ticks
system.cpu5.numCycles                      6141591844                       # number of cpu cycles simulated
system.cpu5.numWorkItemsStarted                     0                       # number of work items this cpu started
system.cpu5.numWorkItemsCompleted                   0                       # number of work items this cpu completed
system.cpu5.committedInsts                   21006727                       # Number of instructions committed
system.cpu5.committedOps                     41857777                       # Number of ops (including micro ops) committed
system.cpu5.num_int_alu_accesses             32737317                       # Number of integer alu accesses
system.cpu5.num_fp_alu_accesses              22882035                       # Number of float alu accesses
system.cpu5.num_func_calls                      40531                       # number of times a function call or return occured
system.cpu5.num_conditional_control_insts      2310570                       # number of instructions that are conditional controls
system.cpu5.num_int_insts                    32737317                       # number of integer instructions
system.cpu5.num_fp_insts                     22882035                       # number of float instructions
system.cpu5.num_int_register_reads           63226287                       # number of times the integer registers were read
system.cpu5.num_int_register_writes          16641624                       # number of times the integer registers were written
system.cpu5.num_fp_register_reads            31860914                       # number of times the floating registers were read
system.cpu5.num_fp_register_writes           18261133                       # number of times the floating registers were written
system.cpu5.num_cc_register_reads            13883681                       # number of times the CC registers were read
system.cpu5.num_cc_register_writes           13877327                       # number of times the CC registers were written
system.cpu5.num_mem_refs                     13842900                       # number of memory refs
system.cpu5.num_load_insts                    9201655                       # Number of load instructions
system.cpu5.num_store_insts                   4641245                       # Number of store instructions
system.cpu5.num_idle_cycles              5982080357.741203                       # Number of idle cycles
system.cpu5.num_busy_cycles              159511486.258796                       # Number of busy cycles
system.cpu5.not_idle_fraction                0.025972                       # Percentage of non-idle cycles
system.cpu5.idle_fraction                    0.974028                       # Percentage of idle cycles
system.cpu5.Branches                          2371388                       # Number of branches fetched
system.cpu5.op_class::No_OpClass                    2      0.00%      0.00% # Class of executed instruction
system.cpu5.op_class::IntAlu                 18836785     45.00%     45.00% # Class of executed instruction
system.cpu5.op_class::IntMult                   57612      0.14%     45.14% # Class of executed instruction
system.cpu5.op_class::IntDiv                       14      0.00%     45.14% # Class of executed instruction
system.cpu5.op_class::FloatAdd                9120464     21.79%     66.93% # Class of executed instruction
system.cpu5.op_class::FloatCmp                      0      0.00%     66.93% # Class of executed instruction
system.cpu5.op_class::FloatCvt                      0      0.00%     66.93% # Class of executed instruction
system.cpu5.op_class::FloatMult                     0      0.00%     66.93% # Class of executed instruction
system.cpu5.op_class::FloatDiv                      0      0.00%     66.93% # Class of executed instruction
system.cpu5.op_class::FloatSqrt                     0      0.00%     66.93% # Class of executed instruction
system.cpu5.op_class::SimdAdd                       0      0.00%     66.93% # Class of executed instruction
system.cpu5.op_class::SimdAddAcc                    0      0.00%     66.93% # Class of executed instruction
system.cpu5.op_class::SimdAlu                       0      0.00%     66.93% # Class of executed instruction
system.cpu5.op_class::SimdCmp                       0      0.00%     66.93% # Class of executed instruction
system.cpu5.op_class::SimdCvt                       0      0.00%     66.93% # Class of executed instruction
system.cpu5.op_class::SimdMisc                      0      0.00%     66.93% # Class of executed instruction
system.cpu5.op_class::SimdMult                      0      0.00%     66.93% # Class of executed instruction
system.cpu5.op_class::SimdMultAcc                   0      0.00%     66.93% # Class of executed instruction
system.cpu5.op_class::SimdShift                     0      0.00%     66.93% # Class of executed instruction
system.cpu5.op_class::SimdShiftAcc                  0      0.00%     66.93% # Class of executed instruction
system.cpu5.op_class::SimdSqrt                      0      0.00%     66.93% # Class of executed instruction
system.cpu5.op_class::SimdFloatAdd                  0      0.00%     66.93% # Class of executed instruction
system.cpu5.op_class::SimdFloatAlu                  0      0.00%     66.93% # Class of executed instruction
system.cpu5.op_class::SimdFloatCmp                  0      0.00%     66.93% # Class of executed instruction
system.cpu5.op_class::SimdFloatCvt                  0      0.00%     66.93% # Class of executed instruction
system.cpu5.op_class::SimdFloatDiv                  0      0.00%     66.93% # Class of executed instruction
system.cpu5.op_class::SimdFloatMisc                 0      0.00%     66.93% # Class of executed instruction
system.cpu5.op_class::SimdFloatMult                 0      0.00%     66.93% # Class of executed instruction
system.cpu5.op_class::SimdFloatMultAcc              0      0.00%     66.93% # Class of executed instruction
system.cpu5.op_class::SimdFloatSqrt                 0      0.00%     66.93% # Class of executed instruction
system.cpu5.op_class::MemRead                 9201655     21.98%     88.91% # Class of executed instruction
system.cpu5.op_class::MemWrite                4641245     11.09%    100.00% # Class of executed instruction
system.cpu5.op_class::IprAccess                     0      0.00%    100.00% # Class of executed instruction
system.cpu5.op_class::InstPrefetch                  0      0.00%    100.00% # Class of executed instruction
system.cpu5.op_class::total                  41857777                       # Class of executed instruction
system.cpu6.apic_clk_domain.clock                8000                       # Clock period in ticks
system.cpu6.numCycles                      6141592559                       # number of cpu cycles simulated
system.cpu6.numWorkItemsStarted                     0                       # number of work items this cpu started
system.cpu6.numWorkItemsCompleted                   0                       # number of work items this cpu completed
system.cpu6.committedInsts                   21006727                       # Number of instructions committed
system.cpu6.committedOps                     41857777                       # Number of ops (including micro ops) committed
system.cpu6.num_int_alu_accesses             32737317                       # Number of integer alu accesses
system.cpu6.num_fp_alu_accesses              22882035                       # Number of float alu accesses
system.cpu6.num_func_calls                      40531                       # number of times a function call or return occured
system.cpu6.num_conditional_control_insts      2310570                       # number of instructions that are conditional controls
system.cpu6.num_int_insts                    32737317                       # number of integer instructions
system.cpu6.num_fp_insts                     22882035                       # number of float instructions
system.cpu6.num_int_register_reads           63226287                       # number of times the integer registers were read
system.cpu6.num_int_register_writes          16641624                       # number of times the integer registers were written
system.cpu6.num_fp_register_reads            31860914                       # number of times the floating registers were read
system.cpu6.num_fp_register_writes           18261133                       # number of times the floating registers were written
system.cpu6.num_cc_register_reads            13883681                       # number of times the CC registers were read
system.cpu6.num_cc_register_writes           13877327                       # number of times the CC registers were written
system.cpu6.num_mem_refs                     13842900                       # number of memory refs
system.cpu6.num_load_insts                    9201655                       # Number of load instructions
system.cpu6.num_store_insts                   4641245                       # Number of store instructions
system.cpu6.num_idle_cycles              5982081314.154447                       # Number of idle cycles
system.cpu6.num_busy_cycles              159511244.845553                       # Number of busy cycles
system.cpu6.not_idle_fraction                0.025972                       # Percentage of non-idle cycles
system.cpu6.idle_fraction                    0.974028                       # Percentage of idle cycles
system.cpu6.Branches                          2371388                       # Number of branches fetched
system.cpu6.op_class::No_OpClass                    2      0.00%      0.00% # Class of executed instruction
system.cpu6.op_class::IntAlu                 18836785     45.00%     45.00% # Class of executed instruction
system.cpu6.op_class::IntMult                   57612      0.14%     45.14% # Class of executed instruction
system.cpu6.op_class::IntDiv                       14      0.00%     45.14% # Class of executed instruction
system.cpu6.op_class::FloatAdd                9120464     21.79%     66.93% # Class of executed instruction
system.cpu6.op_class::FloatCmp                      0      0.00%     66.93% # Class of executed instruction
system.cpu6.op_class::FloatCvt                      0      0.00%     66.93% # Class of executed instruction
system.cpu6.op_class::FloatMult                     0      0.00%     66.93% # Class of executed instruction
system.cpu6.op_class::FloatDiv                      0      0.00%     66.93% # Class of executed instruction
system.cpu6.op_class::FloatSqrt                     0      0.00%     66.93% # Class of executed instruction
system.cpu6.op_class::SimdAdd                       0      0.00%     66.93% # Class of executed instruction
system.cpu6.op_class::SimdAddAcc                    0      0.00%     66.93% # Class of executed instruction
system.cpu6.op_class::SimdAlu                       0      0.00%     66.93% # Class of executed instruction
system.cpu6.op_class::SimdCmp                       0      0.00%     66.93% # Class of executed instruction
system.cpu6.op_class::SimdCvt                       0      0.00%     66.93% # Class of executed instruction
system.cpu6.op_class::SimdMisc                      0      0.00%     66.93% # Class of executed instruction
system.cpu6.op_class::SimdMult                      0      0.00%     66.93% # Class of executed instruction
system.cpu6.op_class::SimdMultAcc                   0      0.00%     66.93% # Class of executed instruction
system.cpu6.op_class::SimdShift                     0      0.00%     66.93% # Class of executed instruction
system.cpu6.op_class::SimdShiftAcc                  0      0.00%     66.93% # Class of executed instruction
system.cpu6.op_class::SimdSqrt                      0      0.00%     66.93% # Class of executed instruction
system.cpu6.op_class::SimdFloatAdd                  0      0.00%     66.93% # Class of executed instruction
system.cpu6.op_class::SimdFloatAlu                  0      0.00%     66.93% # Class of executed instruction
system.cpu6.op_class::SimdFloatCmp                  0      0.00%     66.93% # Class of executed instruction
system.cpu6.op_class::SimdFloatCvt                  0      0.00%     66.93% # Class of executed instruction
system.cpu6.op_class::SimdFloatDiv                  0      0.00%     66.93% # Class of executed instruction
system.cpu6.op_class::SimdFloatMisc                 0      0.00%     66.93% # Class of executed instruction
system.cpu6.op_class::SimdFloatMult                 0      0.00%     66.93% # Class of executed instruction
system.cpu6.op_class::SimdFloatMultAcc              0      0.00%     66.93% # Class of executed instruction
system.cpu6.op_class::SimdFloatSqrt                 0      0.00%     66.93% # Class of executed instruction
system.cpu6.op_class::MemRead                 9201655     21.98%     88.91% # Class of executed instruction
system.cpu6.op_class::MemWrite                4641245     11.09%    100.00% # Class of executed instruction
system.cpu6.op_class::IprAccess                     0      0.00%    100.00% # Class of executed instruction
system.cpu6.op_class::InstPrefetch                  0      0.00%    100.00% # Class of executed instruction
system.cpu6.op_class::total                  41857777                       # Class of executed instruction
system.cpu7.apic_clk_domain.clock                8000                       # Clock period in ticks
system.cpu7.numCycles                      6141592657                       # number of cpu cycles simulated
system.cpu7.numWorkItemsStarted                     0                       # number of work items this cpu started
system.cpu7.numWorkItemsCompleted                   0                       # number of work items this cpu completed
system.cpu7.committedInsts                   21006727                       # Number of instructions committed
[...]
system.ruby.L1Cache_Controller.MM.L1_Replacement |     2272955     35.73%     35.73% |      534928      8.41%     44.14% |      504149      7.92%     52.06% |      487824      7.67%     59.73% |      507355      7.97%     67.70% |      517580      8.14%     75.84% |      515487      8.10%     83.94% |      511029      8.03%     91.97% |      510653      8.03%    100.00%
system.ruby.L1Cache_Controller.MM.L1_Replacement::total      6361960                      
system.ruby.L1Cache_Controller.MM.Fwd_GETX |           0      0.00%      0.00% |      143270     11.89%     11.89% |      198164     16.44%     28.33% |      174973     14.52%     42.85% |      151926     12.61%     55.45% |      140229     11.64%     67.09% |      150276     12.47%     79.56% |      117010      9.71%     89.27% |      129352     10.73%    100.00%
system.ruby.L1Cache_Controller.MM.Fwd_GETX::total      1205200                      
system.ruby.L1Cache_Controller.MM.Fwd_GETS |          83      0.01%      0.01% |       81239      7.04%      7.04% |      131791     11.42%     18.46% |      159091     13.78%     32.24% |      144799     12.54%     44.78% |      156975     13.60%     58.38% |      152734     13.23%     71.61% |      146678     12.71%     84.32% |      181044     15.68%    100.00%
system.ruby.L1Cache_Controller.MM.Fwd_GETS::total      1154434                      
system.ruby.L1Cache_Controller.IS.Inv    |           0      0.00%      0.00% |        4673     12.79%     12.79% |        4063     11.12%     23.91% |        5212     14.27%     38.18% |        4404     12.05%     50.23% |        4108     11.24%     61.48% |        4813     13.17%     74.65% |        4550     12.45%     87.11% |        4710     12.89%    100.00%
system.ruby.L1Cache_Controller.IS.Inv::total        36533                      
system.ruby.L1Cache_Controller.IS.Data_Exclusive |       10078      0.22%      0.22% |      570145     12.68%     12.91% |      587912     13.08%     25.98% |      555234     12.35%     38.33% |      555885     12.36%     50.70% |      570187     12.68%     63.38% |      549207     12.22%     75.59% |      557330     12.40%     87.99% |      539922     12.01%    100.00%
system.ruby.L1Cache_Controller.IS.Data_Exclusive::total      4495900                      
system.ruby.L1Cache_Controller.IS.DataS_fromL1 |          82      0.01%      0.01% |      156627     13.56%     13.57% |      137564     11.91%     25.48% |      160404     13.89%     39.36% |      146819     12.71%     52.08% |      120089     10.40%     62.47% |      148262     12.84%     75.31% |      134790     11.67%     86.98% |      150396     13.02%    100.00%
system.ruby.L1Cache_Controller.IS.DataS_fromL1::total      1155033                      
system.ruby.L1Cache_Controller.IS.Data_all_Acks |          11      0.00%      0.00% |       54961      8.74%      8.74% |       93325     14.84%     23.58% |       86297     13.72%     37.30% |       79651     12.66%     49.96% |       80623     12.82%     62.78% |       84293     13.40%     76.18% |       66972     10.65%     86.83% |       82859     13.17%    100.00%
system.ruby.L1Cache_Controller.IS.Data_all_Acks::total       628992                      
system.ruby.L1Cache_Controller.IM.Data   |           0      0.00%      0.00% |        9287     11.67%     11.67% |       10284     12.92%     24.59% |       11506     14.46%     39.05% |       10511     13.21%     52.26% |       10208     12.83%     65.08% |       10450     13.13%     78.21% |        8661     10.88%     89.09% |        8679     10.91%    100.00%
system.ruby.L1Cache_Controller.IM.Data::total        79586                      
system.ruby.L1Cache_Controller.IM.Data_all_Acks |     2288417     65.44%     65.44% |       91970      2.63%     68.07% |      125225      3.58%     71.66% |      151079      4.32%     75.98% |      145366      4.16%     80.13% |      158090      4.52%     84.65% |      177825      5.09%     89.74% |      157205      4.50%     94.24% |      201558      5.76%    100.00%
system.ruby.L1Cache_Controller.IM.Data_all_Acks::total      3496735                      
system.ruby.L1Cache_Controller.IM.Ack    |           0      0.00%      0.00% |        2572     12.15%     12.15% |        2752     13.00%     25.15% |        2999     14.16%     39.31% |        3012     14.23%     53.54% |        2849     13.46%     66.99% |        2584     12.20%     79.20% |        2444     11.54%     90.74% |        1960      9.26%    100.00%
system.ruby.L1Cache_Controller.IM.Ack::total        21172                      
system.ruby.L1Cache_Controller.SM.Inv    |           0      0.00%      0.00% |       48643      6.28%      6.28% |       76283      9.84%     16.12% |       92493     11.93%     28.05% |       94639     12.21%     40.26% |      108098     13.95%     54.21% |      115355     14.88%     69.09% |      104054     13.43%     82.52% |      135480     17.48%    100.00%
system.ruby.L1Cache_Controller.SM.Inv::total       775045                      
system.ruby.L1Cache_Controller.SM.Ack    |         105      0.01%      0.01% |      249356     14.28%     14.28% |      284772     16.30%     30.59% |      259025     14.83%     45.42% |      229227     13.12%     58.54% |      185961     10.65%     69.19% |      205478     11.76%     80.95% |      165564      9.48%     90.43% |      167134      9.57%    100.00%
system.ruby.L1Cache_Controller.SM.Ack::total      1746622                      
system.ruby.L1Cache_Controller.SM.Ack_all |          79      0.01%      0.01% |      170492     14.20%     14.21% |      171680     14.30%     28.51% |      173614     14.46%     42.97% |      157835     13.15%     56.12% |      126396     10.53%     66.65% |      144891     12.07%     78.72% |      125132     10.42%     89.14% |      130360     10.86%    100.00%
system.ruby.L1Cache_Controller.SM.Ack_all::total      1200479                      
system.ruby.L1Cache_Controller.IS_I.Data_all_Acks |           0      0.00%      0.00% |        4673     12.79%     12.79% |        4063     11.12%     23.91% |        5212     14.27%     38.18% |        4404     12.05%     50.23% |        4108     11.24%     61.48% |        4813     13.17%     74.65% |        4550     12.45%     87.11% |        4710     12.89%    100.00%
system.ruby.L1Cache_Controller.IS_I.Data_all_Acks::total        36533                      
system.ruby.L1Cache_Controller.M_I.Inv   |           0      0.00%      0.00% |           2     14.29%     14.29% |           1      7.14%     21.43% |           4     28.57%     50.00% |           0      0.00%     50.00% |           1      7.14%     57.14% |           2     14.29%     71.43% |           3     21.43%     92.86% |           1      7.14%    100.00%
system.ruby.L1Cache_Controller.M_I.Inv::total           14                      
system.ruby.L1Cache_Controller.M_I.Fwd_GETS |           0      0.00%      0.00% |           0      0.00%      0.00% |           0      0.00%      0.00% |           2      0.40%      0.40% |         421     85.22%     85.63% |          15      3.04%     88.66% |           0      0.00%     88.66% |          55     11.13%     99.80% |           1      0.20%    100.00%
system.ruby.L1Cache_Controller.M_I.Fwd_GETS::total          494                      
system.ruby.L1Cache_Controller.M_I.WB_Ack |     2280025     35.60%     35.60% |      539108      8.42%     44.02% |      509091      7.95%     51.97% |      492417      7.69%     59.65% |      511261      7.98%     67.64% |      522232      8.15%     75.79% |      519892      8.12%     83.91% |      515215      8.04%     91.95% |      515381      8.05%    100.00%
system.ruby.L1Cache_Controller.M_I.WB_Ack::total      6404622                      
system.ruby.L1Cache_Controller.SINK_WB_ACK.WB_Ack |           0      0.00%      0.00% |           2      0.39%      0.39% |           1      0.20%      0.59% |           6      1.18%      1.77% |         421     82.87%     84.65% |          16      3.15%     87.80% |           2      0.39%     88.19% |          58     11.42%     99.61% |           2      0.39%    100.00%
system.ruby.L1Cache_Controller.SINK_WB_ACK.WB_Ack::total          508                      
system.ruby.L1Cache_Controller.S_IL0.Store |           0      0.00%      0.00% |       36298     10.20%     10.20% |       41251     11.60%     21.80% |       47886     13.46%     35.26% |       42779     12.02%     47.28% |       41768     11.74%     59.02% |       49885     14.02%     73.05% |       43242     12.15%     85.20% |       52652     14.80%    100.00%
system.ruby.L1Cache_Controller.S_IL0.Store::total       355761                      
system.ruby.L1Cache_Controller.S_IL0.L0_Invalidate_Own |           8      0.12%      0.12% |         864     12.53%     12.65% |         858     12.44%     25.09% |         832     12.06%     37.15% |         852     12.35%     49.51% |         851     12.34%     61.85% |         846     12.27%     74.12% |         905     13.12%     87.24% |         880     12.76%    100.00%
system.ruby.L1Cache_Controller.S_IL0.L0_Invalidate_Own::total         6896                      
system.ruby.L1Cache_Controller.S_IL0.L0_Invalidate_Else |           3      0.00%      0.00% |       55299     10.28%     10.28% |       61836     11.49%     21.77% |       73409     13.65%     35.42% |       64313     11.95%     47.37% |       63242     11.76%     59.13% |       76530     14.23%     73.36% |       64989     12.08%     85.44% |       78353     14.56%    100.00%
system.ruby.L1Cache_Controller.S_IL0.L0_Invalidate_Else::total       537974                      
system.ruby.L1Cache_Controller.S_IL0.L0_Ack |          11      0.00%      0.00% |       56163     10.31%     10.31% |       62694     11.51%     21.82% |       74241     13.63%     35.44% |       65165     11.96%     47.40% |       64093     11.76%     59.16% |       77376     14.20%     73.36% |       65894     12.09%     85.46% |       79233     14.54%    100.00%
system.ruby.L1Cache_Controller.S_IL0.L0_Ack::total       544870                      
system.ruby.L1Cache_Controller.E_IL0.L0_DataAck |        1538      1.65%      1.65% |        7785      8.35%     10.00% |       27235     29.21%     39.21% |       11172     11.98%     51.19% |       11237     12.05%     63.24% |       12531     13.44%     76.68% |        8493      9.11%     85.79% |        6685      7.17%     92.96% |        6567      7.04%    100.00%
system.ruby.L1Cache_Controller.E_IL0.L0_DataAck::total        93243                      
system.ruby.L1Cache_Controller.E_IL0.L0_Invalidate_Own |        8596     12.01%     12.01% |        7679     10.73%     22.75% |        7864     10.99%     33.74% |        8149     11.39%     45.13% |        7847     10.97%     56.10% |        7945     11.10%     67.20% |        7476     10.45%     77.65% |        7698     10.76%     88.41% |        8293     11.59%    100.00%
system.ruby.L1Cache_Controller.E_IL0.L0_Invalidate_Own::total        71547                      
system.ruby.L1Cache_Controller.E_IL0.L0_Invalidate_Else |          96      0.13%      0.13% |        5124      7.07%      7.21% |       24954     34.45%     41.65% |       11173     15.42%     57.08% |        8200     11.32%     68.40% |        9719     13.42%     81.81% |        6005      8.29%     90.10% |        3752      5.18%     95.28% |        3419      4.72%    100.00%
system.ruby.L1Cache_Controller.E_IL0.L0_Invalidate_Else::total        72442                      
system.ruby.L1Cache_Controller.E_IL0.L0_Ack |        7154     14.10%     14.10% |        5018      9.89%     23.99% |        5583     11.00%     34.99% |        8150     16.06%     51.05% |        4810      9.48%     60.53% |        5133     10.12%     70.64% |        4988      9.83%     80.47% |        4765      9.39%     89.86% |        5145     10.14%    100.00%
system.ruby.L1Cache_Controller.E_IL0.L0_Ack::total        50746                      
system.ruby.L1Cache_Controller.M_IL0.L0_DataAck |       17217      0.79%      0.79% |      221332     10.18%     10.97% |      294429     13.54%     24.51% |      293481     13.50%     38.01% |      269557     12.40%     50.41% |      265532     12.21%     62.63% |      286606     13.18%     75.81% |      239479     11.02%     86.82% |      286482     13.18%    100.00%
system.ruby.L1Cache_Controller.M_IL0.L0_DataAck::total      2174115                      
system.ruby.L1Cache_Controller.M_IL0.L0_Invalidate_Own |       16418     94.52%     94.52% |         155      0.89%     95.41% |          84      0.48%     95.90% |          87      0.50%     96.40% |         133      0.77%     97.16% |         166      0.96%     98.12% |         105      0.60%     98.72% |          93      0.54%     99.26% |         129      0.74%    100.00%
system.ruby.L1Cache_Controller.M_IL0.L0_Invalidate_Own::total        17370                      
system.ruby.L1Cache_Controller.M_IL0.L0_Invalidate_Else |         863      0.04%      0.04% |      221904     10.25%     10.29% |      295385     13.65%     23.94% |      294421     13.60%     37.55% |      270356     12.49%     50.04% |      266329     12.31%     62.35% |      287339     13.28%     75.62% |      240267     11.10%     86.73% |      287275     13.27%    100.00%
system.ruby.L1Cache_Controller.M_IL0.L0_Invalidate_Else::total      2164139                      
system.ruby.L1Cache_Controller.M_IL0.L0_Ack |          64      0.87%      0.87% |         727      9.83%     10.70% |        1040     14.07%     24.76% |        1027     13.89%     38.65% |         932     12.60%     51.26% |         963     13.02%     64.28% |         838     11.33%     75.62% |         881     11.92%     87.53% |         922     12.47%    100.00%
system.ruby.L1Cache_Controller.M_IL0.L0_Ack::total         7394                      
system.ruby.L2Cache_Controller.L1_GETS        8073252      0.00%      0.00%
system.ruby.L2Cache_Controller.L1_GETX        4973815      0.00%      0.00%
system.ruby.L2Cache_Controller.L1_UPGRADE      1896038      0.00%      0.00%
system.ruby.L2Cache_Controller.L1_PUTX        6405609      0.00%      0.00%
system.ruby.L2Cache_Controller.L1_PUTX_old           28      0.00%      0.00%
system.ruby.L2Cache_Controller.L2_Replacement      1167843      0.00%      0.00%
system.ruby.L2Cache_Controller.L2_Replacement_clean      1256378      0.00%      0.00%
system.ruby.L2Cache_Controller.Mem_Data       3062673      0.00%      0.00%
system.ruby.L2Cache_Controller.Mem_Ack        2424221      0.00%      0.00%
system.ruby.L2Cache_Controller.WB_Data        1446879      0.00%      0.00%
system.ruby.L2Cache_Controller.WB_Data_clean        91558      0.00%      0.00%
system.ruby.L2Cache_Controller.Ack                421      0.00%      0.00%
system.ruby.L2Cache_Controller.Ack_all           7543      0.00%      0.00%
system.ruby.L2Cache_Controller.Unblock        1155033      0.00%      0.00%
system.ruby.L2Cache_Controller.Exclusive_Unblock      9193114      0.00%      0.00%
system.ruby.L2Cache_Controller.NP.L1_GETS      1649183      0.00%      0.00%
system.ruby.L2Cache_Controller.NP.L1_GETX      1413490      0.00%      0.00%
system.ruby.L2Cache_Controller.NP.L1_PUTX_old           14      0.00%      0.00%
system.ruby.L2Cache_Controller.SS.L1_GETS       548230      0.00%      0.00%
system.ruby.L2Cache_Controller.SS.L1_GETX        82580      0.00%      0.00%
system.ruby.L2Cache_Controller.SS.L1_UPGRADE      1120893      0.00%      0.00%
system.ruby.L2Cache_Controller.SS.L1_PUTX          494      0.00%      0.00%
system.ruby.L2Cache_Controller.SS.L2_Replacement           45      0.00%      0.00%
system.ruby.L2Cache_Controller.SS.L2_Replacement_clean           32      0.00%      0.00%
system.ruby.L2Cache_Controller.M.L1_GETS      2895268      0.00%      0.00%
system.ruby.L2Cache_Controller.M.L1_GETX       875048      0.00%      0.00%
system.ruby.L2Cache_Controller.M.L2_Replacement      1150047      0.00%      0.00%
system.ruby.L2Cache_Controller.M.L2_Replacement_clean       883227      0.00%      0.00%
system.ruby.L2Cache_Controller.MT.L1_GETS      1155033      0.00%      0.00%
system.ruby.L2Cache_Controller.MT.L1_GETX      1205203      0.00%      0.00%
system.ruby.L2Cache_Controller.MT.L1_PUTX      6404622      0.00%      0.00%
system.ruby.L2Cache_Controller.MT.L2_Replacement        17751      0.00%      0.00%
system.ruby.L2Cache_Controller.MT.L2_Replacement_clean       373119      0.00%      0.00%
system.ruby.L2Cache_Controller.M_I.L1_GETS          111      0.00%      0.00%
system.ruby.L2Cache_Controller.M_I.L1_GETX            8      0.00%      0.00%
system.ruby.L2Cache_Controller.M_I.Mem_Ack      2424221      0.00%      0.00%
system.ruby.L2Cache_Controller.MT_I.L1_GETS          607      0.00%      0.00%
system.ruby.L2Cache_Controller.MT_I.L1_PUTX_old            6      0.00%      0.00%
system.ruby.L2Cache_Controller.MT_I.WB_Data        16915      0.00%      0.00%
system.ruby.L2Cache_Controller.MT_I.WB_Data_clean          428      0.00%      0.00%
system.ruby.L2Cache_Controller.MT_I.Ack_all          408      0.00%      0.00%
system.ruby.L2Cache_Controller.MCT_I.L1_GETS            1      0.00%      0.00%
system.ruby.L2Cache_Controller.MCT_I.L1_PUTX_old            8      0.00%      0.00%
system.ruby.L2Cache_Controller.MCT_I.WB_Data       274940      0.00%      0.00%
system.ruby.L2Cache_Controller.MCT_I.WB_Data_clean        91121      0.00%      0.00%
system.ruby.L2Cache_Controller.MCT_I.Ack_all         7058      0.00%      0.00%
system.ruby.L2Cache_Controller.I_I.L1_GETS            5      0.00%      0.00%
system.ruby.L2Cache_Controller.I_I.Ack            212      0.00%      0.00%
system.ruby.L2Cache_Controller.I_I.Ack_all           32      0.00%      0.00%
system.ruby.L2Cache_Controller.S_I.Ack            209      0.00%      0.00%
system.ruby.L2Cache_Controller.S_I.Ack_all           45      0.00%      0.00%
system.ruby.L2Cache_Controller.ISS.L1_GETS        48551      0.00%      0.00%
system.ruby.L2Cache_Controller.ISS.Mem_Data      1600632      0.00%      0.00%
system.ruby.L2Cache_Controller.IS.L1_GETS        20193      0.00%      0.00%
system.ruby.L2Cache_Controller.IS.Mem_Data        48551      0.00%      0.00%
system.ruby.L2Cache_Controller.IM.L1_GETX            4      0.00%      0.00%
system.ruby.L2Cache_Controller.IM.Mem_Data      1413490      0.00%      0.00%
system.ruby.L2Cache_Controller.SS_MB.L1_GETS       173503      0.00%      0.00%
system.ruby.L2Cache_Controller.SS_MB.L1_GETX       547247      0.00%      0.00%
system.ruby.L2Cache_Controller.SS_MB.L1_UPGRADE       774732      0.00%      0.00%
system.ruby.L2Cache_Controller.SS_MB.Exclusive_Unblock      1203473      0.00%      0.00%
system.ruby.L2Cache_Controller.MT_MB.L1_GETS      1031634      0.00%      0.00%
system.ruby.L2Cache_Controller.MT_MB.L1_GETX       714645      0.00%      0.00%
system.ruby.L2Cache_Controller.MT_MB.Exclusive_Unblock      7989641      0.00%      0.00%
system.ruby.L2Cache_Controller.MT_IIB.L1_GETS       550730      0.00%      0.00%
system.ruby.L2Cache_Controller.MT_IIB.L1_GETX       135590      0.00%      0.00%
system.ruby.L2Cache_Controller.MT_IIB.L1_UPGRADE          402      0.00%      0.00%
system.ruby.L2Cache_Controller.MT_IIB.L1_PUTX          493      0.00%      0.00%
system.ruby.L2Cache_Controller.MT_IIB.WB_Data      1092823      0.00%      0.00%
system.ruby.L2Cache_Controller.MT_IIB.WB_Data_clean            9      0.00%      0.00%
system.ruby.L2Cache_Controller.MT_IIB.Unblock        62201      0.00%      0.00%
system.ruby.L2Cache_Controller.MT_IB.L1_GETS            9      0.00%      0.00%
system.ruby.L2Cache_Controller.MT_IB.L1_UPGRADE            5      0.00%      0.00%
system.ruby.L2Cache_Controller.MT_IB.WB_Data        62201      0.00%      0.00%
system.ruby.L2Cache_Controller.MT_SB.L1_GETS          194      0.00%      0.00%
system.ruby.L2Cache_Controller.MT_SB.L1_UPGRADE            6      0.00%      0.00%
system.ruby.L2Cache_Controller.MT_SB.Unblock      1092832      0.00%      0.00%

---------- End Simulation Statistics   ----------
