
---------- Begin Simulation Statistics ----------
sim_seconds                                  1.553507                       # Number of seconds simulated
sim_ticks                                1553506799500                       # Number of ticks simulated
final_tick                               1553506799500                       # Number of ticks from beginning of simulation (restored from checkpoints and never reset)
sim_freq                                 1000000000000                       # Frequency of simulated ticks
host_inst_rate                                 138159                       # Simulator instruction rate (inst/s)
host_op_rate                                   381387                       # Simulator op (including micro ops) rate (op/s)
host_tick_rate                              227488937                       # Simulator tick rate (ticks/s)
host_mem_usage                                1145340                       # Number of bytes of host memory used
host_seconds                                  6828.93                       # Real time elapsed on the host
sim_insts                                   943480132                       # Number of instructions simulated
sim_ops                                    2604463620                       # Number of ops (including micro ops) simulated
system.voltage_domain.voltage                       1                       # Voltage in Volts
system.clk_domain.clock                          1000                       # Clock period in ticks
system.mem_ctrls.bytes_read::ruby.dir_cntrl0     76214272                       # Number of bytes read from this memory
system.mem_ctrls.bytes_read::total           76214272                       # Number of bytes read from this memory
system.mem_ctrls.bytes_written::ruby.dir_cntrl0     31338112                       # Number of bytes written to this memory
system.mem_ctrls.bytes_written::total        31338112                       # Number of bytes written to this memory
system.mem_ctrls.num_reads::ruby.dir_cntrl0      1190848                       # Number of read requests responded to by this memory
system.mem_ctrls.num_reads::total             1190848                       # Number of read requests responded to by this memory
system.mem_ctrls.num_writes::ruby.dir_cntrl0       489658                       # Number of write requests responded to by this memory
system.mem_ctrls.num_writes::total             489658                       # Number of write requests responded to by this memory
system.mem_ctrls.bw_read::ruby.dir_cntrl0     49059503                       # Total read bandwidth from this memory (bytes/s)
system.mem_ctrls.bw_read::total              49059503                       # Total read bandwidth from this memory (bytes/s)
system.mem_ctrls.bw_write::ruby.dir_cntrl0     20172497                       # Write bandwidth from this memory (bytes/s)
system.mem_ctrls.bw_write::total             20172497                       # Write bandwidth from this memory (bytes/s)
system.mem_ctrls.bw_total::ruby.dir_cntrl0     69232001                       # Total bandwidth to/from this memory (bytes/s)
system.mem_ctrls.bw_total::total             69232001                       # Total bandwidth to/from this memory (bytes/s)
system.mem_ctrls.readReqs                     1190848                       # Number of read requests accepted
system.mem_ctrls.writeReqs                     489658                       # Number of write requests accepted
system.mem_ctrls.readBursts                   1190848                       # Number of DRAM read bursts, including those serviced by the write queue
system.mem_ctrls.writeBursts                   489658                       # Number of DRAM write bursts, including those merged in the write queue
system.mem_ctrls.bytesReadDRAM               76195776                       # Total number of bytes read from DRAM
system.mem_ctrls.bytesReadWrQ                   18496                       # Total number of bytes read from write queue
system.mem_ctrls.bytesWritten                31336128                       # Total number of bytes written to DRAM
system.mem_ctrls.bytesReadSys                76214272                       # Total read bytes from the system interface side
system.mem_ctrls.bytesWrittenSys             31338112                       # Total written bytes from the system interface side
system.mem_ctrls.servicedByWrQ                    289                       # Number of DRAM read bursts serviced by the write queue
system.mem_ctrls.mergedWrBursts                     0                       # Number of DRAM write bursts merged with an existing one
system.mem_ctrls.neitherReadNorWriteReqs            0                       # Number of requests that are neither read nor write
system.mem_ctrls.perBankRdBursts::0             74147                       # Per bank write bursts
system.mem_ctrls.perBankRdBursts::1             74923                       # Per bank write bursts
system.mem_ctrls.perBankRdBursts::2             74046                       # Per bank write bursts
system.mem_ctrls.perBankRdBursts::3             73706                       # Per bank write bursts
system.mem_ctrls.perBankRdBursts::4             74060                       # Per bank write bursts
system.mem_ctrls.perBankRdBursts::5             73824                       # Per bank write bursts
system.mem_ctrls.perBankRdBursts::6             74653                       # Per bank write bursts
system.mem_ctrls.perBankRdBursts::7             74728                       # Per bank write bursts
system.mem_ctrls.perBankRdBursts::8             74499                       # Per bank write bursts
system.mem_ctrls.perBankRdBursts::9             75404                       # Per bank write bursts
system.mem_ctrls.perBankRdBursts::10            75061                       # Per bank write bursts
system.mem_ctrls.perBankRdBursts::11            75061                       # Per bank write bursts
system.mem_ctrls.perBankRdBursts::12            73660                       # Per bank write bursts
system.mem_ctrls.perBankRdBursts::13            74642                       # Per bank write bursts
system.mem_ctrls.perBankRdBursts::14            74054                       # Per bank write bursts
system.mem_ctrls.perBankRdBursts::15            74091                       # Per bank write bursts
system.mem_ctrls.perBankWrBursts::0             30378                       # Per bank write bursts
system.mem_ctrls.perBankWrBursts::1             31241                       # Per bank write bursts
system.mem_ctrls.perBankWrBursts::2             30439                       # Per bank write bursts
system.mem_ctrls.perBankWrBursts::3             30099                       # Per bank write bursts
system.mem_ctrls.perBankWrBursts::4             30225                       # Per bank write bursts
system.mem_ctrls.perBankWrBursts::5             29950                       # Per bank write bursts
system.mem_ctrls.perBankWrBursts::6             30887                       # Per bank write bursts
system.mem_ctrls.perBankWrBursts::7             30832                       # Per bank write bursts
system.mem_ctrls.perBankWrBursts::8             30709                       # Per bank write bursts
system.mem_ctrls.perBankWrBursts::9             31392                       # Per bank write bursts
system.mem_ctrls.perBankWrBursts::10            31171                       # Per bank write bursts
system.mem_ctrls.perBankWrBursts::11            30919                       # Per bank write bursts
system.mem_ctrls.perBankWrBursts::12            29790                       # Per bank write bursts
system.mem_ctrls.perBankWrBursts::13            30796                       # Per bank write bursts
system.mem_ctrls.perBankWrBursts::14            30216                       # Per bank write bursts
system.mem_ctrls.perBankWrBursts::15            30583                       # Per bank write bursts
system.mem_ctrls.numRdRetry                         0                       # Number of times read queue was full causing retry
system.mem_ctrls.numWrRetry                         0                       # Number of times write queue was full causing retry
system.mem_ctrls.totGap                  1553506719000                       # Total gap between requests
system.mem_ctrls.readPktSize::0                     0                       # Read request sizes (log2)
system.mem_ctrls.readPktSize::1                     0                       # Read request sizes (log2)
system.mem_ctrls.readPktSize::2                     0                       # Read request sizes (log2)
system.mem_ctrls.readPktSize::3                     0                       # Read request sizes (log2)
system.mem_ctrls.readPktSize::4                     0                       # Read request sizes (log2)
system.mem_ctrls.readPktSize::5                     0                       # Read request sizes (log2)
system.mem_ctrls.readPktSize::6               1190848                       # Read request sizes (log2)
system.mem_ctrls.writePktSize::0                    0                       # Write request sizes (log2)
system.mem_ctrls.writePktSize::1                    0                       # Write request sizes (log2)
system.mem_ctrls.writePktSize::2                    0                       # Write request sizes (log2)
system.mem_ctrls.writePktSize::3                    0                       # Write request sizes (log2)
system.mem_ctrls.writePktSize::4                    0                       # Write request sizes (log2)
system.mem_ctrls.writePktSize::5                    0                       # Write request sizes (log2)
system.mem_ctrls.writePktSize::6               489658                       # Write request sizes (log2)
system.mem_ctrls.rdQLenPdf::0                 1069548                       # What read queue length does an incoming req see
system.mem_ctrls.rdQLenPdf::1                   94651                       # What read queue length does an incoming req see
system.mem_ctrls.rdQLenPdf::2                   21479                       # What read queue length does an incoming req see
system.mem_ctrls.rdQLenPdf::3                    4881                       # What read queue length does an incoming req see
system.mem_ctrls.rdQLenPdf::4                       0                       # What read queue length does an incoming req see
system.mem_ctrls.rdQLenPdf::5                       0                       # What read queue length does an incoming req see
system.mem_ctrls.rdQLenPdf::6                       0                       # What read queue length does an incoming req see
system.mem_ctrls.rdQLenPdf::7                       0                       # What read queue length does an incoming req see
system.mem_ctrls.rdQLenPdf::8                       0                       # What read queue length does an incoming req see
system.mem_ctrls.rdQLenPdf::9                       0                       # What read queue length does an incoming req see
system.mem_ctrls.rdQLenPdf::10                      0                       # What read queue length does an incoming req see
system.mem_ctrls.rdQLenPdf::11                      0                       # What read queue length does an incoming req see
system.mem_ctrls.rdQLenPdf::12                      0                       # What read queue length does an incoming req see
system.mem_ctrls.rdQLenPdf::13                      0                       # What read queue length does an incoming req see
system.mem_ctrls.rdQLenPdf::14                      0                       # What read queue length does an incoming req see
system.mem_ctrls.rdQLenPdf::15                      0                       # What read queue length does an incoming req see
system.mem_ctrls.rdQLenPdf::16                      0                       # What read queue length does an incoming req see
system.mem_ctrls.rdQLenPdf::17                      0                       # What read queue length does an incoming req see
system.mem_ctrls.rdQLenPdf::18                      0                       # What read queue length does an incoming req see
system.mem_ctrls.rdQLenPdf::19                      0                       # What read queue length does an incoming req see
system.mem_ctrls.rdQLenPdf::20                      0                       # What read queue length does an incoming req see
system.mem_ctrls.rdQLenPdf::21                      0                       # What read queue length does an incoming req see
system.mem_ctrls.rdQLenPdf::22                      0                       # What read queue length does an incoming req see
system.mem_ctrls.rdQLenPdf::23                      0                       # What read queue length does an incoming req see
system.mem_ctrls.rdQLenPdf::24                      0                       # What read queue length does an incoming req see
system.mem_ctrls.rdQLenPdf::25                      0                       # What read queue length does an incoming req see
system.mem_ctrls.rdQLenPdf::26                      0                       # What read queue length does an incoming req see
system.mem_ctrls.rdQLenPdf::27                      0                       # What read queue length does an incoming req see
system.mem_ctrls.rdQLenPdf::28                      0                       # What read queue length does an incoming req see
system.mem_ctrls.rdQLenPdf::29                      0                       # What read queue length does an incoming req see
system.mem_ctrls.rdQLenPdf::30                      0                       # What read queue length does an incoming req see
system.mem_ctrls.rdQLenPdf::31                      0                       # What read queue length does an incoming req see
system.mem_ctrls.wrQLenPdf::0                       1                       # What write queue length does an incoming req see
system.mem_ctrls.wrQLenPdf::1                       1                       # What write queue length does an incoming req see
system.mem_ctrls.wrQLenPdf::2                       1                       # What write queue length does an incoming req see
system.mem_ctrls.wrQLenPdf::3                       1                       # What write queue length does an incoming req see
system.mem_ctrls.wrQLenPdf::4                       1                       # What write queue length does an incoming req see
system.mem_ctrls.wrQLenPdf::5                       1                       # What write queue length does an incoming req see
system.mem_ctrls.wrQLenPdf::6                       1                       # What write queue length does an incoming req see
system.mem_ctrls.wrQLenPdf::7                       1                       # What write queue length does an incoming req see
system.mem_ctrls.wrQLenPdf::8                       1                       # What write queue length does an incoming req see
system.mem_ctrls.wrQLenPdf::9                       1                       # What write queue length does an incoming req see
system.mem_ctrls.wrQLenPdf::10                      1                       # What write queue length does an incoming req see
system.mem_ctrls.wrQLenPdf::11                      1                       # What write queue length does an incoming req see
system.mem_ctrls.wrQLenPdf::12                      1                       # What write queue length does an incoming req see
system.mem_ctrls.wrQLenPdf::13                      1                       # What write queue length does an incoming req see
system.mem_ctrls.wrQLenPdf::14                      1                       # What write queue length does an incoming req see
system.mem_ctrls.wrQLenPdf::15                   1409                       # What write queue length does an incoming req see
system.mem_ctrls.wrQLenPdf::16                   1787                       # What write queue length does an incoming req see
system.mem_ctrls.wrQLenPdf::17                  17411                       # What write queue length does an incoming req see
system.mem_ctrls.wrQLenPdf::18                  24401                       # What write queue length does an incoming req see
system.mem_ctrls.wrQLenPdf::19                  29324                       # What write queue length does an incoming req see
system.mem_ctrls.wrQLenPdf::20                  31357                       # What write queue length does an incoming req see
system.mem_ctrls.wrQLenPdf::21                  32242                       # What write queue length does an incoming req see
system.mem_ctrls.wrQLenPdf::22                  32561                       # What write queue length does an incoming req see
system.mem_ctrls.wrQLenPdf::23                  32644                       # What write queue length does an incoming req see
system.mem_ctrls.wrQLenPdf::24                  32474                       # What write queue length does an incoming req see
system.mem_ctrls.wrQLenPdf::25                  32296                       # What write queue length does an incoming req see
system.mem_ctrls.wrQLenPdf::26                  32072                       # What write queue length does an incoming req see
system.mem_ctrls.wrQLenPdf::27                  31896                       # What write queue length does an incoming req see
system.mem_ctrls.wrQLenPdf::28                  31719                       # What write queue length does an incoming req see
system.mem_ctrls.wrQLenPdf::29                  31627                       # What write queue length does an incoming req see
system.mem_ctrls.wrQLenPdf::30                  31698                       # What write queue length does an incoming req see
system.mem_ctrls.wrQLenPdf::31                  31121                       # What write queue length does an incoming req see
system.mem_ctrls.wrQLenPdf::32                  30987                       # What write queue length does an incoming req see
system.mem_ctrls.wrQLenPdf::33                    346                       # What write queue length does an incoming req see
system.mem_ctrls.wrQLenPdf::34                    157                       # What write queue length does an incoming req see
system.mem_ctrls.wrQLenPdf::35                     71                       # What write queue length does an incoming req see
system.mem_ctrls.wrQLenPdf::36                     30                       # What write queue length does an incoming req see
system.mem_ctrls.wrQLenPdf::37                     11                       # What write queue length does an incoming req see
system.mem_ctrls.wrQLenPdf::38                      2                       # What write queue length does an incoming req see
system.mem_ctrls.wrQLenPdf::39                      0                       # What write queue length does an incoming req see
system.mem_ctrls.wrQLenPdf::40                      0                       # What write queue length does an incoming req see
system.mem_ctrls.wrQLenPdf::41                      0                       # What write queue length does an incoming req see
system.mem_ctrls.wrQLenPdf::42                      0                       # What write queue length does an incoming req see
system.mem_ctrls.wrQLenPdf::43                      0                       # What write queue length does an incoming req see
system.mem_ctrls.wrQLenPdf::44                      0                       # What write queue length does an incoming req see
system.mem_ctrls.wrQLenPdf::45                      0                       # What write queue length does an incoming req see
system.mem_ctrls.wrQLenPdf::46                      0                       # What write queue length does an incoming req see
system.mem_ctrls.wrQLenPdf::47                      0                       # What write queue length does an incoming req see
system.mem_ctrls.wrQLenPdf::48                      0                       # What write queue length does an incoming req see
system.mem_ctrls.wrQLenPdf::49                      0                       # What write queue length does an incoming req see
system.mem_ctrls.wrQLenPdf::50                      0                       # What write queue length does an incoming req see
system.mem_ctrls.wrQLenPdf::51                      0                       # What write queue length does an incoming req see
system.mem_ctrls.wrQLenPdf::52                      0                       # What write queue length does an incoming req see
system.mem_ctrls.wrQLenPdf::53                      0                       # What write queue length does an incoming req see
system.mem_ctrls.wrQLenPdf::54                      0                       # What write queue length does an incoming req see
system.mem_ctrls.wrQLenPdf::55                      0                       # What write queue length does an incoming req see
system.mem_ctrls.wrQLenPdf::56                      0                       # What write queue length does an incoming req see
system.mem_ctrls.wrQLenPdf::57                      0                       # What write queue length does an incoming req see
system.mem_ctrls.wrQLenPdf::58                      0                       # What write queue length does an incoming req see
system.mem_ctrls.wrQLenPdf::59                      0                       # What write queue length does an incoming req see
system.mem_ctrls.wrQLenPdf::60                      0                       # What write queue length does an incoming req see
system.mem_ctrls.wrQLenPdf::61                      0                       # What write queue length does an incoming req see
system.mem_ctrls.wrQLenPdf::62                      0                       # What write queue length does an incoming req see
system.mem_ctrls.wrQLenPdf::63                      0                       # What write queue length does an incoming req see
system.mem_ctrls.bytesPerActivate::samples       588862                       # Bytes accessed per row activation
system.mem_ctrls.bytesPerActivate::mean    182.607402                       # Bytes accessed per row activation
system.mem_ctrls.bytesPerActivate::gmean   122.944750                       # Bytes accessed per row activation
system.mem_ctrls.bytesPerActivate::stdev   195.702161                       # Bytes accessed per row activation
system.mem_ctrls.bytesPerActivate::0-127       321053     54.52%     54.52% # Bytes accessed per row activation
system.mem_ctrls.bytesPerActivate::128-255       102932     17.48%     72.00% # Bytes accessed per row activation
system.mem_ctrls.bytesPerActivate::256-383        85146     14.46%     86.46% # Bytes accessed per row activation
system.mem_ctrls.bytesPerActivate::384-511        27854      4.73%     91.19% # Bytes accessed per row activation
system.mem_ctrls.bytesPerActivate::512-639        19073      3.24%     94.43% # Bytes accessed per row activation
system.mem_ctrls.bytesPerActivate::640-767        13388      2.27%     96.70% # Bytes accessed per row activation
system.mem_ctrls.bytesPerActivate::768-895         9236      1.57%     98.27% # Bytes accessed per row activation
system.mem_ctrls.bytesPerActivate::896-1023         5583      0.95%     99.22% # Bytes accessed per row activation
system.mem_ctrls.bytesPerActivate::1024-1151         4597      0.78%    100.00% # Bytes accessed per row activation
system.mem_ctrls.bytesPerActivate::total       588862                       # Bytes accessed per row activation
system.mem_ctrls.rdPerTurnAround::samples        30325                       # Reads before turning the bus around for writes
system.mem_ctrls.rdPerTurnAround::mean      39.258566                       # Reads before turning the bus around for writes
system.mem_ctrls.rdPerTurnAround::stdev   1924.034744                       # Reads before turning the bus around for writes
system.mem_ctrls.rdPerTurnAround::0-16383        30324    100.00%    100.00% # Reads before turning the bus around for writes
system.mem_ctrls.rdPerTurnAround::327680-344063            1      0.00%    100.00% # Reads before turning the bus around for writes
system.mem_ctrls.rdPerTurnAround::total         30325                       # Reads before turning the bus around for writes
system.mem_ctrls.wrPerTurnAround::samples        30325                       # Writes before turning the bus around for reads
system.mem_ctrls.wrPerTurnAround::mean      16.145985                       # Writes before turning the bus around for reads
system.mem_ctrls.wrPerTurnAround::gmean     16.135687                       # Writes before turning the bus around for reads
system.mem_ctrls.wrPerTurnAround::stdev      0.609220                       # Writes before turning the bus around for reads
system.mem_ctrls.wrPerTurnAround::16            28388     93.61%     93.61% # Writes before turning the bus around for reads
system.mem_ctrls.wrPerTurnAround::17              273      0.90%     94.51% # Writes before turning the bus around for reads
system.mem_ctrls.wrPerTurnAround::18             1115      3.68%     98.19% # Writes before turning the bus around for reads
system.mem_ctrls.wrPerTurnAround::19              371      1.22%     99.41% # Writes before turning the bus around for reads
system.mem_ctrls.wrPerTurnAround::20              114      0.38%     99.79% # Writes before turning the bus around for reads
system.mem_ctrls.wrPerTurnAround::21               38      0.13%     99.91% # Writes before turning the bus around for reads
system.mem_ctrls.wrPerTurnAround::22               18      0.06%     99.97% # Writes before turning the bus around for reads
system.mem_ctrls.wrPerTurnAround::23                7      0.02%    100.00% # Writes before turning the bus around for reads
system.mem_ctrls.wrPerTurnAround::24                1      0.00%    100.00% # Writes before turning the bus around for reads
system.mem_ctrls.wrPerTurnAround::total         30325                       # Writes before turning the bus around for reads
system.mem_ctrls.totQLat                  21148459020                       # Total ticks spent queuing
system.mem_ctrls.totMemAccLat             43471440270                       # Total ticks spent from burst creation until serviced by the DRAM
system.mem_ctrls.totBusLat                 5952795000                       # Total ticks spent in databus transfers
system.mem_ctrls.avgQLat                     17763.47                       # Average queueing delay per DRAM burst
system.mem_ctrls.avgBusLat                    5000.00                       # Average bus latency per DRAM burst
system.mem_ctrls.avgMemAccLat                36513.47                       # Average memory access latency per DRAM burst
system.mem_ctrls.avgRdBW                        49.05                       # Average DRAM read bandwidth in MiByte/s
system.mem_ctrls.avgWrBW                        20.17                       # Average achieved write bandwidth in MiByte/s
system.mem_ctrls.avgRdBWSys                     49.06                       # Average system read bandwidth in MiByte/s
system.mem_ctrls.avgWrBWSys                     20.17                       # Average system write bandwidth in MiByte/s
system.mem_ctrls.peakBW                      12800.00                       # Theoretical peak bandwidth in MiByte/s
system.mem_ctrls.busUtil                         0.54                       # Data bus utilization in percentage
system.mem_ctrls.busUtilRead                     0.38                       # Data bus utilization in percentage for reads
system.mem_ctrls.busUtilWrite                    0.16                       # Data bus utilization in percentage for writes
system.mem_ctrls.avgRdQLen                       1.01                       # Average read queue length when enqueuing
system.mem_ctrls.avgWrQLen                      18.36                       # Average write queue length when enqueuing
system.mem_ctrls.readRowHits                   914967                       # Number of row buffer hits during reads
system.mem_ctrls.writeRowHits                  176351                       # Number of row buffer hits during writes
system.mem_ctrls.readRowHitRate                 76.85                       # Row buffer hit rate for reads
system.mem_ctrls.writeRowHitRate                36.02                       # Row buffer hit rate for writes
system.mem_ctrls.avgGap                     924427.95                       # Average gap between requests
system.mem_ctrls.pageHitRate                    64.95                       # Row buffer hit rate, read and write combined
system.mem_ctrls_0.actEnergy               2222564400                       # Energy for activate commands per rank (pJ)
system.mem_ctrls_0.preEnergy               1212708750                       # Energy for precharge commands per rank (pJ)
system.mem_ctrls_0.readEnergy              4633831800                       # Energy for read commands per rank (pJ)
system.mem_ctrls_0.writeEnergy             1581450480                       # Energy for write commands per rank (pJ)
system.mem_ctrls_0.refreshEnergy         101467382640                       # Energy for refresh commands per rank (pJ)
system.mem_ctrls_0.actBackEnergy         312774155730                       # Energy for active background per rank (pJ)
system.mem_ctrls_0.preBackEnergy         657739749750                       # Energy for precharge background per rank (pJ)
system.mem_ctrls_0.totalEnergy           1081631843550                       # Total energy per rank (pJ)
system.mem_ctrls_0.averagePower            696.252534                       # Core power per rank (mW)
system.mem_ctrls_0.memoryStateTime::IDLE 1092358239500                       # Time in different power states
system.mem_ctrls_0.memoryStateTime::REF   51874940000                       # Time in different power states
system.mem_ctrls_0.memoryStateTime::PRE_PDN            0                       # Time in different power states
system.mem_ctrls_0.memoryStateTime::ACT  409271908000                       # Time in different power states
system.mem_ctrls_0.memoryStateTime::ACT_PDN            0                       # Time in different power states
system.mem_ctrls_1.actEnergy               2229232320                       # Energy for activate commands per rank (pJ)
system.mem_ctrls_1.preEnergy               1216347000                       # Energy for precharge commands per rank (pJ)
system.mem_ctrls_1.readEnergy              4652364600                       # Energy for read commands per rank (pJ)
system.mem_ctrls_1.writeEnergy             1591332480                       # Energy for write commands per rank (pJ)
system.mem_ctrls_1.refreshEnergy         101467382640                       # Energy for refresh commands per rank (pJ)
system.mem_ctrls_1.actBackEnergy         314385734970                       # Energy for active background per rank (pJ)
system.mem_ctrls_1.preBackEnergy         656326083750                       # Energy for precharge background per rank (pJ)
system.mem_ctrls_1.totalEnergy           1081868477760                       # Total energy per rank (pJ)
system.mem_ctrls_1.averagePower            696.404856                       # Core power per rank (mW)
system.mem_ctrls_1.memoryStateTime::IDLE 1090012380751                       # Time in different power states
system.mem_ctrls_1.memoryStateTime::REF   51874940000                       # Time in different power states
system.mem_ctrls_1.memoryStateTime::PRE_PDN            0                       # Time in different power states
system.mem_ctrls_1.memoryStateTime::ACT  411617839249                       # Time in different power states
system.mem_ctrls_1.memoryStateTime::ACT_PDN            0                       # Time in different power states
system.cpu_voltage_domain.voltage                   1                       # Voltage in Volts
system.cpu_clk_domain.clock                       500                       # Clock period in ticks
system.cpu0.apic_clk_domain.clock                8000                       # Clock period in ticks
system.cpu0.workload.num_syscalls                 196                       # Number of system calls
system.cpu0.numCycles                      3107013599                       # number of cpu cycles simulated
system.cpu0.numWorkItemsStarted                     0                       # number of work items this cpu started
system.cpu0.numWorkItemsCompleted                   0                       # number of work items this cpu completed
system.cpu0.committedInsts                  859453240                       # Number of instructions committed
system.cpu0.committedOps                   2437032536                       # Number of ops (including micro ops) committed
system.cpu0.num_int_alu_accesses           2300092937                       # Number of integer alu accesses
system.cpu0.num_fp_alu_accesses              58138219                       # Number of float alu accesses
system.cpu0.num_func_calls                   81530228                       # number of times a function call or return occured
system.cpu0.num_conditional_control_insts    189235513                       # number of instructions that are conditional controls
system.cpu0.num_int_insts                  2300092937                       # number of integer instructions
system.cpu0.num_fp_insts                     58138219                       # number of float instructions
system.cpu0.num_int_register_reads         4848703713                       # number of times the integer registers were read
system.cpu0.num_int_register_writes        2287011264                       # number of times the integer registers were written
system.cpu0.num_fp_register_reads            93430457                       # number of times the floating registers were read
system.cpu0.num_fp_register_writes           45693074                       # number of times the floating registers were written
system.cpu0.num_cc_register_reads          1947120851                       # number of times the CC registers were read
system.cpu0.num_cc_register_writes          729534961                       # number of times the CC registers were written
system.cpu0.num_mem_refs                    376105595                       # number of memory refs
system.cpu0.num_load_insts                  229098215                       # Number of load instructions
system.cpu0.num_store_insts                 147007380                       # Number of store instructions
system.cpu0.num_idle_cycles                  0.002000                       # Number of idle cycles
system.cpu0.num_busy_cycles              3107013598.998000                       # Number of busy cycles
system.cpu0.not_idle_fraction                1.000000                       # Percentage of non-idle cycles
system.cpu0.idle_fraction                    0.000000                       # Percentage of idle cycles
system.cpu0.Branches                        309851994                       # Number of branches fetched
system.cpu0.op_class::No_OpClass             47297338      1.94%      1.94% # Class of executed instruction
system.cpu0.op_class::IntAlu               1764313243     72.40%     74.34% # Class of executed instruction
system.cpu0.op_class::IntMult                     390      0.00%     74.34% # Class of executed instruction
system.cpu0.op_class::IntDiv                203623722      8.36%     82.69% # Class of executed instruction
system.cpu0.op_class::FloatAdd               45692248      1.87%     84.57% # Class of executed instruction
system.cpu0.op_class::FloatCmp                      0      0.00%     84.57% # Class of executed instruction
system.cpu0.op_class::FloatCvt                      0      0.00%     84.57% # Class of executed instruction
system.cpu0.op_class::FloatMult                     0      0.00%     84.57% # Class of executed instruction
system.cpu0.op_class::FloatDiv                      0      0.00%     84.57% # Class of executed instruction
system.cpu0.op_class::FloatSqrt                     0      0.00%     84.57% # Class of executed instruction
system.cpu0.op_class::SimdAdd                       0      0.00%     84.57% # Class of executed instruction
system.cpu0.op_class::SimdAddAcc                    0      0.00%     84.57% # Class of executed instruction
system.cpu0.op_class::SimdAlu                       0      0.00%     84.57% # Class of executed instruction
system.cpu0.op_class::SimdCmp                       0      0.00%     84.57% # Class of executed instruction
system.cpu0.op_class::SimdCvt                       0      0.00%     84.57% # Class of executed instruction
system.cpu0.op_class::SimdMisc                      0      0.00%     84.57% # Class of executed instruction
system.cpu0.op_class::SimdMult                      0      0.00%     84.57% # Class of executed instruction
system.cpu0.op_class::SimdMultAcc                   0      0.00%     84.57% # Class of executed instruction
system.cpu0.op_class::SimdShift                     0      0.00%     84.57% # Class of executed instruction
system.cpu0.op_class::SimdShiftAcc                  0      0.00%     84.57% # Class of executed instruction
system.cpu0.op_class::SimdSqrt                      0      0.00%     84.57% # Class of executed instruction
system.cpu0.op_class::SimdFloatAdd                  0      0.00%     84.57% # Class of executed instruction
system.cpu0.op_class::SimdFloatAlu                  0      0.00%     84.57% # Class of executed instruction
system.cpu0.op_class::SimdFloatCmp                  0      0.00%     84.57% # Class of executed instruction
system.cpu0.op_class::SimdFloatCvt                  0      0.00%     84.57% # Class of executed instruction
system.cpu0.op_class::SimdFloatDiv                  0      0.00%     84.57% # Class of executed instruction
system.cpu0.op_class::SimdFloatMisc                 0      0.00%     84.57% # Class of executed instruction
system.cpu0.op_class::SimdFloatMult                 0      0.00%     84.57% # Class of executed instruction
system.cpu0.op_class::SimdFloatMultAcc              0      0.00%     84.57% # Class of executed instruction
system.cpu0.op_class::SimdFloatSqrt                 0      0.00%     84.57% # Class of executed instruction
system.cpu0.op_class::MemRead               229098215      9.40%     93.97% # Class of executed instruction
system.cpu0.op_class::MemWrite              147007380      6.03%    100.00% # Class of executed instruction
system.cpu0.op_class::IprAccess                     0      0.00%    100.00% # Class of executed instruction
system.cpu0.op_class::InstPrefetch                  0      0.00%    100.00% # Class of executed instruction
system.cpu0.op_class::total                2437032536                       # Class of executed instruction
system.cpu1.apic_clk_domain.clock                8000                       # Clock period in ticks
system.cpu1.numCycles                      3106700335                       # number of cpu cycles simulated
system.cpu1.numWorkItemsStarted                     0                       # number of work items this cpu started
system.cpu1.numWorkItemsCompleted                   0                       # number of work items this cpu completed
system.cpu1.committedInsts                   21006723                       # Number of instructions committed
system.cpu1.committedOps                     41857771                       # Number of ops (including micro ops) committed
system.cpu1.num_int_alu_accesses             32737311                       # Number of integer alu accesses
system.cpu1.num_fp_alu_accesses              22882035                       # Number of float alu accesses
system.cpu1.num_func_calls                      40531                       # number of times a function call or return occured
system.cpu1.num_conditional_control_insts      2310570                       # number of instructions that are conditional controls
system.cpu1.num_int_insts                    32737311                       # number of integer instructions
system.cpu1.num_fp_insts                     22882035                       # number of float instructions
system.cpu1.num_int_register_reads           63226277                       # number of times the integer registers were read
system.cpu1.num_int_register_writes          16641619                       # number of times the integer registers were written
system.cpu1.num_fp_register_reads            31860914                       # number of times the floating registers were read
system.cpu1.num_fp_register_writes           18261133                       # number of times the floating registers were written
system.cpu1.num_cc_register_reads            13883680                       # number of times the CC registers were read
system.cpu1.num_cc_register_writes           13877323                       # number of times the CC registers were written
system.cpu1.num_mem_refs                     13842900                       # number of memory refs
system.cpu1.num_load_insts                    9201655                       # Number of load instructions
system.cpu1.num_store_insts                   4641245                       # Number of store instructions
system.cpu1.num_idle_cycles              2991448732.390665                       # Number of idle cycles
system.cpu1.num_busy_cycles              115251602.609336                       # Number of busy cycles
system.cpu1.not_idle_fraction                0.037098                       # Percentage of non-idle cycles
system.cpu1.idle_fraction                    0.962902                       # Percentage of idle cycles
system.cpu1.Branches                          2371387                       # Number of branches fetched
system.cpu1.op_class::No_OpClass                    2      0.00%      0.00% # Class of executed instruction
system.cpu1.op_class::IntAlu                 18836779     45.00%     45.00% # Class of executed instruction
system.cpu1.op_class::IntMult                   57612      0.14%     45.14% # Class of executed instruction
system.cpu1.op_class::IntDiv                       14      0.00%     45.14% # Class of executed instruction
system.cpu1.op_class::FloatAdd                9120464     21.79%     66.93% # Class of executed instruction
system.cpu1.op_class::FloatCmp                      0      0.00%     66.93% # Class of executed instruction
system.cpu1.op_class::FloatCvt                      0      0.00%     66.93% # Class of executed instruction
system.cpu1.op_class::FloatMult                     0      0.00%     66.93% # Class of executed instruction
system.cpu1.op_class::FloatDiv                      0      0.00%     66.93% # Class of executed instruction
system.cpu1.op_class::FloatSqrt                     0      0.00%     66.93% # Class of executed instruction
system.cpu1.op_class::SimdAdd                       0      0.00%     66.93% # Class of executed instruction
system.cpu1.op_class::SimdAddAcc                    0      0.00%     66.93% # Class of executed instruction
system.cpu1.op_class::SimdAlu                       0      0.00%     66.93% # Class of executed instruction
system.cpu1.op_class::SimdCmp                       0      0.00%     66.93% # Class of executed instruction
system.cpu1.op_class::SimdCvt                       0      0.00%     66.93% # Class of executed instruction
system.cpu1.op_class::SimdMisc                      0      0.00%     66.93% # Class of executed instruction
system.cpu1.op_class::SimdMult                      0      0.00%     66.93% # Class of executed instruction
system.cpu1.op_class::SimdMultAcc                   0      0.00%     66.93% # Class of executed instruction
system.cpu1.op_class::SimdShift                     0      0.00%     66.93% # Class of executed instruction
system.cpu1.op_class::SimdShiftAcc                  0      0.00%     66.93% # Class of executed instruction
system.cpu1.op_class::SimdSqrt                      0      0.00%     66.93% # Class of executed instruction
system.cpu1.op_class::SimdFloatAdd                  0      0.00%     66.93% # Class of executed instruction
system.cpu1.op_class::SimdFloatAlu                  0      0.00%     66.93% # Class of executed instruction
system.cpu1.op_class::SimdFloatCmp                  0      0.00%     66.93% # Class of executed instruction
system.cpu1.op_class::SimdFloatCvt                  0      0.00%     66.93% # Class of executed instruction
system.cpu1.op_class::SimdFloatDiv                  0      0.00%     66.93% # Class of executed instruction
system.cpu1.op_class::SimdFloatMisc                 0      0.00%     66.93% # Class of executed instruction
system.cpu1.op_class::SimdFloatMult                 0      0.00%     66.93% # Class of executed instruction
system.cpu1.op_class::SimdFloatMultAcc              0      0.00%     66.93% # Class of executed instruction
system.cpu1.op_class::SimdFloatSqrt                 0      0.00%     66.93% # Class of executed instruction
system.cpu1.op_class::MemRead                 9201655     21.98%     88.91% # Class of executed instruction
system.cpu1.op_class::MemWrite                4641245     11.09%    100.00% # Class of executed instruction
system.cpu1.op_class::IprAccess                     0      0.00%    100.00% # Class of executed instruction
system.cpu1.op_class::InstPrefetch                  0      0.00%    100.00% # Class of executed instruction
system.cpu1.op_class::total                  41857771                       # Class of executed instruction
system.cpu2.apic_clk_domain.clock                8000                       # Clock period in ticks
system.cpu2.numCycles                      3104462897                       # number of cpu cycles simulated
system.cpu2.numWorkItemsStarted                     0                       # number of work items this cpu started
system.cpu2.numWorkItemsCompleted                   0                       # number of work items this cpu completed
system.cpu2.committedInsts                   21006723                       # Number of instructions committed
system.cpu2.committedOps                     41857771                       # Number of ops (including micro ops) committed
system.cpu2.num_int_alu_accesses             32737311                       # Number of integer alu accesses
system.cpu2.num_fp_alu_accesses              22882035                       # Number of float alu accesses
system.cpu2.num_func_calls                      40531                       # number of times a function call or return occured
system.cpu2.num_conditional_control_insts      2310570                       # number of instructions that are conditional controls
system.cpu2.num_int_insts                    32737311                       # number of integer instructions
system.cpu2.num_fp_insts                     22882035                       # number of float instructions
system.cpu2.num_int_register_reads           63226277                       # number of times the integer registers were read
system.cpu2.num_int_register_writes          16641619                       # number of times the integer registers were written
system.cpu2.num_fp_register_reads            31860914                       # number of times the floating registers were read
system.cpu2.num_fp_register_writes           18261133                       # number of times the floating registers were written
system.cpu2.num_cc_register_reads            13883680                       # number of times the CC registers were read
system.cpu2.num_cc_register_writes           13877323                       # number of times the CC registers were written
system.cpu2.num_mem_refs                     13842900                       # number of memory refs
system.cpu2.num_load_insts                    9201655                       # Number of load instructions
system.cpu2.num_store_insts                   4641245                       # Number of store instructions
system.cpu2.num_idle_cycles              2991530633.886076                       # Number of idle cycles
system.cpu2.num_busy_cycles              112932263.113924                       # Number of busy cycles
system.cpu2.not_idle_fraction                0.036377                       # Percentage of non-idle cycles
system.cpu2.idle_fraction                    0.963623                       # Percentage of idle cycles
system.cpu2.Branches                          2371387                       # Number of branches fetched
system.cpu2.op_class::No_OpClass                    2      0.00%      0.00% # Class of executed instruction
system.cpu2.op_class::IntAlu                 18836779     45.00%     45.00% # Class of executed instruction
system.cpu2.op_class::IntMult                   57612      0.14%     45.14% # Class of executed instruction
system.cpu2.op_class::IntDiv                       14      0.00%     45.14% # Class of executed instruction
system.cpu2.op_class::FloatAdd                9120464     21.79%     66.93% # Class of executed instruction
system.cpu2.op_class::FloatCmp                      0      0.00%     66.93% # Class of executed instruction
system.cpu2.op_class::FloatCvt                      0      0.00%     66.93% # Class of executed instruction
system.cpu2.op_class::FloatMult                     0      0.00%     66.93% # Class of executed instruction
system.cpu2.op_class::FloatDiv                      0      0.00%     66.93% # Class of executed instruction
system.cpu2.op_class::FloatSqrt                     0      0.00%     66.93% # Class of executed instruction
system.cpu2.op_class::SimdAdd                       0      0.00%     66.93% # Class of executed instruction
system.cpu2.op_class::SimdAddAcc                    0      0.00%     66.93% # Class of executed instruction
system.cpu2.op_class::SimdAlu                       0      0.00%     66.93% # Class of executed instruction
system.cpu2.op_class::SimdCmp                       0      0.00%     66.93% # Class of executed instruction
system.cpu2.op_class::SimdCvt                       0      0.00%     66.93% # Class of executed instruction
system.cpu2.op_class::SimdMisc                      0      0.00%     66.93% # Class of executed instruction
system.cpu2.op_class::SimdMult                      0      0.00%     66.93% # Class of executed instruction
system.cpu2.op_class::SimdMultAcc                   0      0.00%     66.93% # Class of executed instruction
system.cpu2.op_class::SimdShift                     0      0.00%     66.93% # Class of executed instruction
system.cpu2.op_class::SimdShiftAcc                  0      0.00%     66.93% # Class of executed instruction
system.cpu2.op_class::SimdSqrt                      0      0.00%     66.93% # Class of executed instruction
system.cpu2.op_class::SimdFloatAdd                  0      0.00%     66.93% # Class of executed instruction
system.cpu2.op_class::SimdFloatAlu                  0      0.00%     66.93% # Class of executed instruction
system.cpu2.op_class::SimdFloatCmp                  0      0.00%     66.93% # Class of executed instruction
system.cpu2.op_class::SimdFloatCvt                  0      0.00%     66.93% # Class of executed instruction
system.cpu2.op_class::SimdFloatDiv                  0      0.00%     66.93% # Class of executed instruction
system.cpu2.op_class::SimdFloatMisc                 0      0.00%     66.93% # Class of executed instruction
system.cpu2.op_class::SimdFloatMult                 0      0.00%     66.93% # Class of executed instruction
system.cpu2.op_class::SimdFloatMultAcc              0      0.00%     66.93% # Class of executed instruction
system.cpu2.op_class::SimdFloatSqrt                 0      0.00%     66.93% # Class of executed instruction
system.cpu2.op_class::MemRead                 9201655     21.98%     88.91% # Class of executed instruction
system.cpu2.op_class::MemWrite                4641245     11.09%    100.00% # Class of executed instruction
system.cpu2.op_class::IprAccess                     0      0.00%    100.00% # Class of executed instruction
system.cpu2.op_class::InstPrefetch                  0      0.00%    100.00% # Class of executed instruction
system.cpu2.op_class::total                  41857771                       # Class of executed instruction
system.cpu3.apic_clk_domain.clock                8000                       # Clock period in ticks
system.cpu3.numCycles                      3105848951                       # number of cpu cycles simulated
system.cpu3.numWorkItemsStarted                     0                       # number of work items this cpu started
system.cpu3.numWorkItemsCompleted                   0                       # number of work items this cpu completed
system.cpu3.committedInsts                   21006723                       # Number of instructions committed
system.cpu3.committedOps                     41857771                       # Number of ops (including micro ops) committed
system.cpu3.num_int_alu_accesses             32737311                       # Number of integer alu accesses
system.cpu3.num_fp_alu_accesses              22882035                       # Number of float alu accesses
system.cpu3.num_func_calls                      40531                       # number of times a function call or return occured
system.cpu3.num_conditional_control_insts      2310570                       # number of instructions that are conditional controls
system.cpu3.num_int_insts                    32737311                       # number of integer instructions
system.cpu3.num_fp_insts                     22882035                       # number of float instructions
system.cpu3.num_int_register_reads           63226277                       # number of times the integer registers were read
system.cpu3.num_int_register_writes          16641619                       # number of times the integer registers were written
system.cpu3.num_fp_register_reads            31860914                       # number of times the floating registers were read
system.cpu3.num_fp_register_writes           18261133                       # number of times the floating registers were written
system.cpu3.num_cc_register_reads            13883680                       # number of times the CC registers were read
system.cpu3.num_cc_register_writes           13877323                       # number of times the CC registers were written
system.cpu3.num_mem_refs                     13842900                       # number of memory refs
system.cpu3.num_load_insts                    9201655                       # Number of load instructions
system.cpu3.num_store_insts                   4641245                       # Number of store instructions
system.cpu3.num_idle_cycles              2991481349.180575                       # Number of idle cycles
system.cpu3.num_busy_cycles              114367601.819425                       # Number of busy cycles
system.cpu3.not_idle_fraction                0.036823                       # Percentage of non-idle cycles
system.cpu3.idle_fraction                    0.963177                       # Percentage of idle cycles
system.cpu3.Branches                          2371387                       # Number of branches fetched
system.cpu3.op_class::No_OpClass                    2      0.00%      0.00% # Class of executed instruction
system.cpu3.op_class::IntAlu                 18836779     45.00%     45.00% # Class of executed instruction
system.cpu3.op_class::IntMult                   57612      0.14%     45.14% # Class of executed instruction
system.cpu3.op_class::IntDiv                       14      0.00%     45.14% # Class of executed instruction
system.cpu3.op_class::FloatAdd                9120464     21.79%     66.93% # Class of executed instruction
system.cpu3.op_class::FloatCmp                      0      0.00%     66.93% # Class of executed instruction
system.cpu3.op_class::FloatCvt                      0      0.00%     66.93% # Class of executed instruction
system.cpu3.op_class::FloatMult                     0      0.00%     66.93% # Class of executed instruction
system.cpu3.op_class::FloatDiv                      0      0.00%     66.93% # Class of executed instruction
system.cpu3.op_class::FloatSqrt                     0      0.00%     66.93% # Class of executed instruction
system.cpu3.op_class::SimdAdd                       0      0.00%     66.93% # Class of executed instruction
system.cpu3.op_class::SimdAddAcc                    0      0.00%     66.93% # Class of executed instruction
system.cpu3.op_class::SimdAlu                       0      0.00%     66.93% # Class of executed instruction
system.cpu3.op_class::SimdCmp                       0      0.00%     66.93% # Class of executed instruction
system.cpu3.op_class::SimdCvt                       0      0.00%     66.93% # Class of executed instruction
system.cpu3.op_class::SimdMisc                      0      0.00%     66.93% # Class of executed instruction
system.cpu3.op_class::SimdMult                      0      0.00%     66.93% # Class of executed instruction
system.cpu3.op_class::SimdMultAcc                   0      0.00%     66.93% # Class of executed instruction
system.cpu3.op_class::SimdShift                     0      0.00%     66.93% # Class of executed instruction
system.cpu3.op_class::SimdShiftAcc                  0      0.00%     66.93% # Class of executed instruction
system.cpu3.op_class::SimdSqrt                      0      0.00%     66.93% # Class of executed instruction
system.cpu3.op_class::SimdFloatAdd                  0      0.00%     66.93% # Class of executed instruction
system.cpu3.op_class::SimdFloatAlu                  0      0.00%     66.93% # Class of executed instruction
system.cpu3.op_class::SimdFloatCmp                  0      0.00%     66.93% # Class of executed instruction
system.cpu3.op_class::SimdFloatCvt                  0      0.00%     66.93% # Class of executed instruction
system.cpu3.op_class::SimdFloatDiv                  0      0.00%     66.93% # Class of executed instruction
system.cpu3.op_class::SimdFloatMisc                 0      0.00%     66.93% # Class of executed instruction
system.cpu3.op_class::SimdFloatMult                 0      0.00%     66.93% # Class of executed instruction
system.cpu3.op_class::SimdFloatMultAcc              0      0.00%     66.93% # Class of executed instruction
system.cpu3.op_class::SimdFloatSqrt                 0      0.00%     66.93% # Class of executed instruction
system.cpu3.op_class::MemRead                 9201655     21.98%     88.91% # Class of executed instruction
system.cpu3.op_class::MemWrite                4641245     11.09%    100.00% # Class of executed instruction
system.cpu3.op_class::IprAccess                     0      0.00%    100.00% # Class of executed instruction
system.cpu3.op_class::InstPrefetch                  0      0.00%    100.00% # Class of executed instruction
system.cpu3.op_class::total                  41857771                       # Class of executed instruction
system.cpu4.apic_clk_domain.clock                8000                       # Clock period in ticks
system.cpu4.numCycles                      3106419661                       # number of cpu cycles simulated
system.cpu4.numWorkItemsStarted                     0                       # number of work items this cpu started
system.cpu4.numWorkItemsCompleted                   0                       # number of work items this cpu completed
system.cpu4.committedInsts                   21006723                       # Number of instructions committed
system.cpu4.committedOps                     41857771                       # Number of ops (including micro ops) committed
system.cpu4.num_int_alu_accesses             32737311                       # Number of integer alu accesses
system.cpu4.num_fp_alu_accesses              22882035                       # Number of float alu accesses
system.cpu4.num_func_calls                      40531                       # number of times a function call or return occured
system.cpu4.num_conditional_control_insts      2310570                       # number of instructions that are conditional controls
system.cpu4.num_int_insts                    32737311                       # number of integer instructions
system.cpu4.num_fp_insts                     22882035                       # number of float instructions
system.cpu4.num_int_register_reads           63226277                       # number of times the integer registers were read
system.cpu4.num_int_register_writes          16641619                       # number of times the integer registers were written
system.cpu4.num_fp_register_reads            31860914                       # number of times the floating registers were read
system.cpu4.num_fp_register_writes           18261133                       # number of times the floating registers were written
system.cpu4.num_cc_register_reads            13883680                       # number of times the CC registers were read
system.cpu4.num_cc_register_writes           13877323                       # number of times the CC registers were written
system.cpu4.num_mem_refs                     13842900                       # number of memory refs
system.cpu4.num_load_insts                    9201655                       # Number of load instructions
system.cpu4.num_store_insts                   4641245                       # Number of store instructions
system.cpu4.num_idle_cycles              2991461062.734748                       # Number of idle cycles
system.cpu4.num_busy_cycles              114958598.265251                       # Number of busy cycles
system.cpu4.not_idle_fraction                0.037007                       # Percentage of non-idle cycles
system.cpu4.idle_fraction                    0.962993                       # Percentage of idle cycles
system.cpu4.Branches                          2371387                       # Number of branches fetched
system.cpu4.op_class::No_OpClass                    2      0.00%      0.00% # Class of executed instruction
system.cpu4.op_class::IntAlu                 18836779     45.00%     45.00% # Class of executed instruction
system.cpu4.op_class::IntMult                   57612      0.14%     45.14% # Class of executed instruction
system.cpu4.op_class::IntDiv                       14      0.00%     45.14% # Class of executed instruction
system.cpu4.op_class::FloatAdd                9120464     21.79%     66.93% # Class of executed instruction
system.cpu4.op_class::FloatCmp                      0      0.00%     66.93% # Class of executed instruction
system.cpu4.op_class::FloatCvt                      0      0.00%     66.93% # Class of executed instruction
system.cpu4.op_class::FloatMult                     0      0.00%     66.93% # Class of executed instruction
system.cpu4.op_class::FloatDiv                      0      0.00%     66.93% # Class of executed instruction
system.cpu4.op_class::FloatSqrt                     0      0.00%     66.93% # Class of executed instruction
system.cpu4.op_class::SimdAdd                       0      0.00%     66.93% # Class of executed instruction
system.cpu4.op_class::SimdAddAcc                    0      0.00%     66.93% # Class of executed instruction
system.cpu4.op_class::SimdAlu                       0      0.00%     66.93% # Class of executed instruction
system.cpu4.op_class::SimdCmp                       0      0.00%     66.93% # Class of executed instruction
system.cpu4.op_class::SimdCvt                       0      0.00%     66.93% # Class of executed instruction
system.cpu4.op_class::SimdMisc                      0      0.00%     66.93% # Class of executed instruction
system.cpu4.op_class::SimdMult                      0      0.00%     66.93% # Class of executed instruction
system.cpu4.op_class::SimdMultAcc                   0      0.00%     66.93% # Class of executed instruction
system.cpu4.op_class::SimdShift                     0      0.00%     66.93% # Class of executed instruction
system.cpu4.op_class::SimdShiftAcc                  0      0.00%     66.93% # Class of executed instruction
system.cpu4.op_class::SimdSqrt                      0      0.00%     66.93% # Class of executed instruction
system.cpu4.op_class::SimdFloatAdd                  0      0.00%     66.93% # Class of executed instruction
system.cpu4.op_class::SimdFloatAlu                  0      0.00%     66.93% # Class of executed instruction
system.cpu4.op_class::SimdFloatCmp                  0      0.00%     66.93% # Class of executed instruction
system.cpu4.op_class::SimdFloatCvt                  0      0.00%     66.93% # Class of executed instruction
system.cpu4.op_class::SimdFloatDiv                  0      0.00%     66.93% # Class of executed instruction
system.cpu4.op_class::SimdFloatMisc                 0      0.00%     66.93% # Class of executed instruction
system.cpu4.op_class::SimdFloatMult                 0      0.00%     66.93% # Class of executed instruction
system.cpu4.op_class::SimdFloatMultAcc              0      0.00%     66.93% # Class of executed instruction
system.cpu4.op_class::SimdFloatSqrt                 0      0.00%     66.93% # Class of executed instruction
system.cpu4.op_class::MemRead                 9201655     21.98%     88.91% # Class of executed instruction
system.cpu4.op_class::MemWrite                4641245     11.09%    100.00% # Class of executed instruction
system.cpu4.op_class::IprAccess                     0      0.00%    100.00% # Class of executed instruction
system.cpu4.op_class::InstPrefetch                  0      0.00%    100.00% # Class of executed instruction
system.cpu4.op_class::total                  41857771                       # Class of executed instruction
system.ruby.clk_domain.clock                      500                       # Clock period in ticks
system.ruby.delayHist::bucket_size                128                       # delay histogram for all message
system.ruby.delayHist::max_bucket                1279                       # delay histogram for all message
system.ruby.delayHist::samples               26015627                       # delay histogram for all message
system.ruby.delayHist::mean                  0.841120                       # delay histogram for all message
system.ruby.delayHist::stdev                 2.607110                       # delay histogram for all message
system.ruby.delayHist                    |    26015624    100.00%    100.00% |           0      0.00%    100.00% |           1      0.00%    100.00% |           0      0.00%    100.00% |           1      0.00%    100.00% |           1      0.00%    100.00% |           0      0.00%    100.00% |           0      0.00%    100.00% |           0      0.00%    100.00% |           0      0.00%    100.00% # delay histogram for all message
system.ruby.delayHist::total                 26015627                       # delay histogram for all message
system.ruby.outstanding_req_hist::bucket_size            1                      
system.ruby.outstanding_req_hist::max_bucket            9                      
system.ruby.outstanding_req_hist::samples   1658322981                      
system.ruby.outstanding_req_hist::mean       1.000267                      
system.ruby.outstanding_req_hist::gmean      1.000185                      
system.ruby.outstanding_req_hist::stdev      0.016332                      
system.ruby.outstanding_req_hist         |           0      0.00%      0.00% |  1657880549     99.97%     99.97% |      442432      0.03%    100.00% |           0      0.00%    100.00% |           0      0.00%    100.00% |           0      0.00%    100.00% |           0      0.00%    100.00% |           0      0.00%    100.00% |           0      0.00%    100.00% |           0      0.00%    100.00%
system.ruby.outstanding_req_hist::total    1658322981                      
system.ruby.latency_hist::bucket_size             256                      
system.ruby.latency_hist::max_bucket             2559                      
system.ruby.latency_hist::samples          1658322981                      
system.ruby.latency_hist::mean               1.149933                      
system.ruby.latency_hist::gmean              1.009128                      
system.ruby.latency_hist::stdev              5.195641                      
system.ruby.latency_hist                 |  1658238076     99.99%     99.99% |       44571      0.00%    100.00% |       34858      0.00%    100.00% |        3847      0.00%    100.00% |        1191      0.00%    100.00% |         361      0.00%    100.00% |          60      0.00%    100.00% |          15      0.00%    100.00% |           2      0.00%    100.00% |           0      0.00%    100.00%
system.ruby.latency_hist::total            1658322981                      
system.ruby.hit_latency_hist::bucket_size          256                      
system.ruby.hit_latency_hist::max_bucket         2559                      
system.ruby.hit_latency_hist::samples      1658322981                      
system.ruby.hit_latency_hist::mean           1.149933                      
system.ruby.hit_latency_hist::gmean          1.009128                      
system.ruby.hit_latency_hist::stdev          5.195641                      
system.ruby.hit_latency_hist             |  1658238076     99.99%     99.99% |       44571      0.00%    100.00% |       34858      0.00%    100.00% |        3847      0.00%    100.00% |        1191      0.00%    100.00% |         361      0.00%    100.00% |          60      0.00%    100.00% |          15      0.00%    100.00% |           2      0.00%    100.00% |           0      0.00%    100.00%
system.ruby.hit_latency_hist::total        1658322981                      
system.ruby.dir_cntrl0.fully_busy_cycles            1                       # cycles for which number of transistions == max transitions
system.ruby.l0_cntrl0.Dcache.demand_hits    374959455                       # Number of cache demand hits
system.ruby.l0_cntrl0.Dcache.demand_misses      1146204                       # Number of cache demand misses
system.ruby.l0_cntrl0.Dcache.demand_accesses    376105659                       # Number of cache demand accesses
system.ruby.l0_cntrl0.Icache.demand_hits   1118955043                       # Number of cache demand hits
system.ruby.l0_cntrl0.Icache.demand_misses         4279                       # Number of cache demand misses
system.ruby.l0_cntrl0.Icache.demand_accesses   1118959322                       # Number of cache demand accesses
system.ruby.l0_cntrl0.Zcache.demand_hits     65609860                       # Number of cache demand hits
system.ruby.l0_cntrl0.Zcache.demand_misses       746182                       # Number of cache demand misses
system.ruby.l0_cntrl0.Zcache.demand_accesses     66356042                       # Number of cache demand accesses
system.ruby.l0_cntrl1.Dcache.demand_hits     13152207                       # Number of cache demand hits
system.ruby.l0_cntrl1.Dcache.demand_misses       801285                       # Number of cache demand misses
system.ruby.l0_cntrl1.Dcache.demand_accesses     13953492                       # Number of cache demand accesses
system.ruby.l0_cntrl1.Icache.demand_hits     26860163                       # Number of cache demand hits
system.ruby.l0_cntrl1.Icache.demand_misses          845                       # Number of cache demand misses
system.ruby.l0_cntrl1.Icache.demand_accesses     26861008                       # Number of cache demand accesses
system.ruby.l0_cntrl1.Zcache.demand_hits      4064843                       # Number of cache demand hits
system.ruby.l0_cntrl1.Zcache.demand_misses       134112                       # Number of cache demand misses
system.ruby.l0_cntrl1.Zcache.demand_accesses      4198955                       # Number of cache demand accesses
system.ruby.l0_cntrl2.Dcache.demand_hits     13241256                       # Number of cache demand hits
system.ruby.l0_cntrl2.Dcache.demand_misses       712236                       # Number of cache demand misses
system.ruby.l0_cntrl2.Dcache.demand_accesses     13953492                       # Number of cache demand accesses
system.ruby.l0_cntrl2.Icache.demand_hits     26860209                       # Number of cache demand hits
system.ruby.l0_cntrl2.Icache.demand_misses          799                       # Number of cache demand misses
system.ruby.l0_cntrl2.Icache.demand_accesses     26861008                       # Number of cache demand accesses
system.ruby.l0_cntrl2.Zcache.demand_hits      4398888                       # Number of cache demand hits
system.ruby.l0_cntrl2.Zcache.demand_misses       134267                       # Number of cache demand misses
system.ruby.l0_cntrl2.Zcache.demand_accesses      4533155                       # Number of cache demand accesses
system.ruby.l0_cntrl3.Dcache.demand_hits     13238685                       # Number of cache demand hits
system.ruby.l0_cntrl3.Dcache.demand_misses       714807                       # Number of cache demand misses
system.ruby.l0_cntrl3.Dcache.demand_accesses     13953492                       # Number of cache demand accesses
system.ruby.l0_cntrl3.Icache.demand_hits     26860233                       # Number of cache demand hits
system.ruby.l0_cntrl3.Icache.demand_misses          775                       # Number of cache demand misses
system.ruby.l0_cntrl3.Icache.demand_accesses     26861008                       # Number of cache demand accesses
system.ruby.l0_cntrl3.Zcache.demand_hits      4012247                       # Number of cache demand hits
system.ruby.l0_cntrl3.Zcache.demand_misses       133674                       # Number of cache demand misses
system.ruby.l0_cntrl3.Zcache.demand_accesses      4145921                       # Number of cache demand accesses
system.ruby.l0_cntrl4.Dcache.demand_hits     13148304                       # Number of cache demand hits
system.ruby.l0_cntrl4.Dcache.demand_misses       805188                       # Number of cache demand misses
system.ruby.l0_cntrl4.Dcache.demand_accesses     13953492                       # Number of cache demand accesses
system.ruby.l0_cntrl4.Icache.demand_hits     26860192                       # Number of cache demand hits
system.ruby.l0_cntrl4.Icache.demand_misses          816                       # Number of cache demand misses
system.ruby.l0_cntrl4.Icache.demand_accesses     26861008                       # Number of cache demand accesses
system.ruby.l0_cntrl4.Zcache.demand_hits      3702134                       # Number of cache demand hits
system.ruby.l0_cntrl4.Zcache.demand_misses       133944                       # Number of cache demand misses
system.ruby.l0_cntrl4.Zcache.demand_accesses      3836078                       # Number of cache demand accesses
system.ruby.l1_cntrl0.cache.demand_hits           156                       # Number of cache demand hits
system.ruby.l1_cntrl0.cache.demand_misses      1150327                       # Number of cache demand misses
system.ruby.l1_cntrl0.cache.demand_accesses      1150483                       # Number of cache demand accesses
system.ruby.l1_cntrl0.zcache.demand_hits           36                       # Number of cache demand hits
system.ruby.l1_cntrl0.zcache.demand_misses       265427                       # Number of cache demand misses
system.ruby.l1_cntrl0.zcache.demand_accesses       265463                       # Number of cache demand accesses
system.ruby.l1_cntrl1.cache.demand_hits         46119                       # Number of cache demand hits
system.ruby.l1_cntrl1.cache.demand_misses       756011                       # Number of cache demand misses
system.ruby.l1_cntrl1.cache.demand_accesses       802130                       # Number of cache demand accesses
system.ruby.l1_cntrl1.zcache.demand_hits         8763                       # Number of cache demand hits
system.ruby.l1_cntrl1.zcache.demand_misses        65258                       # Number of cache demand misses
system.ruby.l1_cntrl1.zcache.demand_accesses        74021                       # Number of cache demand accesses
system.ruby.l1_cntrl2.cache.demand_hits         44321                       # Number of cache demand hits
system.ruby.l1_cntrl2.cache.demand_misses       668714                       # Number of cache demand misses
system.ruby.l1_cntrl2.cache.demand_accesses       713035                       # Number of cache demand accesses
system.ruby.l1_cntrl2.zcache.demand_hits         9023                       # Number of cache demand hits
system.ruby.l1_cntrl2.zcache.demand_misses        65038                       # Number of cache demand misses
system.ruby.l1_cntrl2.zcache.demand_accesses        74061                       # Number of cache demand accesses
system.ruby.l1_cntrl3.cache.demand_hits         46860                       # Number of cache demand hits
system.ruby.l1_cntrl3.cache.demand_misses       668722                       # Number of cache demand misses
system.ruby.l1_cntrl3.cache.demand_accesses       715582                       # Number of cache demand accesses
system.ruby.l1_cntrl3.zcache.demand_hits         8128                       # Number of cache demand hits
system.ruby.l1_cntrl3.zcache.demand_misses        64982                       # Number of cache demand misses
system.ruby.l1_cntrl3.zcache.demand_accesses        73110                       # Number of cache demand accesses
system.ruby.l1_cntrl4.cache.demand_hits         45600                       # Number of cache demand hits
system.ruby.l1_cntrl4.cache.demand_misses       760404                       # Number of cache demand misses
system.ruby.l1_cntrl4.cache.demand_accesses       806004                       # Number of cache demand accesses
system.ruby.l1_cntrl4.zcache.demand_hits         7281                       # Number of cache demand hits
system.ruby.l1_cntrl4.zcache.demand_misses        65222                       # Number of cache demand misses
system.ruby.l1_cntrl4.zcache.demand_accesses        72503                       # Number of cache demand accesses
system.ruby.l2_cntrl0.L2cache.demand_hits      2626645                       # Number of cache demand hits
system.ruby.l2_cntrl0.L2cache.demand_misses      1377533                       # Number of cache demand misses
system.ruby.l2_cntrl0.L2cache.demand_accesses      4004178                       # Number of cache demand accesses
system.ruby.l2_cntrl0.ZL2cache.demand_hits       487022                       # Number of cache demand hits
system.ruby.l2_cntrl0.ZL2cache.demand_misses       264486                       # Number of cache demand misses
system.ruby.l2_cntrl0.ZL2cache.demand_accesses       751508                       # Number of cache demand accesses
system.ruby.l2_cntrl0.fully_busy_cycles          7487                       # cycles for which number of transistions == max transitions
system.ruby.memctrl_clk_domain.clock             1500                       # Clock period in ticks
system.ruby.network.routers00.percent_links_utilized            0                      
system.ruby.network.routers01.percent_links_utilized            0                      
system.ruby.network.routers02.percent_links_utilized            0                      
system.ruby.network.routers03.percent_links_utilized            0                      
system.ruby.network.routers04.percent_links_utilized            0                      
system.ruby.network.routers05.percent_links_utilized     0.194406                      
system.ruby.network.routers05.msg_count.Control::0      1150327                      
system.ruby.network.routers05.msg_count.Request_Control::2        11747                      
[...]
system.ruby.L1Cache_Controller.NP.Store  |     1144361     99.99%     99.99% |          14      0.00%    100.00% |          16      0.00%    100.00% |          19      0.00%    100.00% |          22      0.00%    100.00%
system.ruby.L1Cache_Controller.NP.Store::total      1144432                      
system.ruby.L1Cache_Controller.NP.Inv    |           0      0.00%      0.00% |          32      0.50%      0.50% |          28      0.44%      0.94% |        1476     23.06%     24.00% |        4864     76.00%    100.00%
system.ruby.L1Cache_Controller.NP.Inv::total         6400                      
system.ruby.L1Cache_Controller.I.L1_Replacement |           0      0.00%      0.00% |           2     33.33%     33.33% |           2     33.33%     66.67% |           2     33.33%    100.00% |           0      0.00%    100.00%
system.ruby.L1Cache_Controller.I.L1_Replacement::total            6                      
system.ruby.L1Cache_Controller.S.Load    |           1     16.67%     16.67% |           2     33.33%     50.00% |           1     16.67%     66.67% |           1     16.67%     83.33% |           1     16.67%    100.00%
system.ruby.L1Cache_Controller.S.Load::total            6                      
system.ruby.L1Cache_Controller.S.Store   |          45      0.02%      0.02% |       89420     47.93%     47.95% |         951      0.51%     48.46% |        2823      1.51%     49.97% |       93335     50.03%    100.00%
system.ruby.L1Cache_Controller.S.Store::total       186574                      
system.ruby.L1Cache_Controller.S.L0_Invalidate_Own |           0      0.00%      0.00% |         918     25.79%     25.79% |         875     24.58%     50.37% |         859     24.13%     74.49% |         908     25.51%    100.00%
system.ruby.L1Cache_Controller.S.L0_Invalidate_Own::total         3560                      
system.ruby.L1Cache_Controller.S.L0_Invalidate_Else |           2      3.28%      3.28% |          14     22.95%     26.23% |          13     21.31%     47.54% |          16     26.23%     73.77% |          16     26.23%    100.00%
system.ruby.L1Cache_Controller.S.L0_Invalidate_Else::total           61                      
system.ruby.L1Cache_Controller.SS.Load   |           3     17.65%     17.65% |           4     23.53%     41.18% |           4     23.53%     64.71% |           4     23.53%     88.24% |           2     11.76%    100.00%
system.ruby.L1Cache_Controller.SS.Load::total           17                      
system.ruby.L1Cache_Controller.SS.Inv    |        1540      0.85%      0.85% |          23      0.01%      0.87% |        2921      1.62%      2.49% |       91263     50.60%     53.09% |       84616     46.91%    100.00%
system.ruby.L1Cache_Controller.SS.Inv::total       180363                      
system.ruby.L1Cache_Controller.SS.L1_Replacement |           0      0.00%      0.00% |         922     12.04%     12.04% |         875     11.42%     23.46% |        1892     24.70%     48.16% |        3971     51.84%    100.00%
system.ruby.L1Cache_Controller.SS.L1_Replacement::total         7660                      
system.ruby.L1Cache_Controller.E.WriteBack |         593      0.02%      0.02% |      567348     23.29%     23.32% |      657012     26.97%     50.29% |      647306     26.57%     76.86% |      563635     23.14%    100.00%
system.ruby.L1Cache_Controller.E.WriteBack::total      2435894                      
system.ruby.L1Cache_Controller.E.L0_Invalidate_Own |        4564     12.27%     12.27% |        8135     21.87%     34.14% |        8001     21.51%     55.66% |        8297     22.31%     77.97% |        8195     22.03%    100.00%
system.ruby.L1Cache_Controller.E.L0_Invalidate_Own::total        37192                      
system.ruby.L1Cache_Controller.E.L0_Invalidate_Else |          81      1.06%      1.06% |         394      5.15%      6.21% |         521      6.81%     13.03% |        6150     80.43%     93.46% |         500      6.54%    100.00%
system.ruby.L1Cache_Controller.E.L0_Invalidate_Else::total         7646                      
system.ruby.L1Cache_Controller.EE.Inv    |          65      5.56%      5.56% |         242     20.68%     26.24% |         128     10.94%     37.18% |         541     46.24%     83.42% |         194     16.58%    100.00%
system.ruby.L1Cache_Controller.EE.Inv::total         1170                      
system.ruby.L1Cache_Controller.EE.L1_Replacement |        3795     16.28%     16.28% |        4785     20.53%     36.80% |        5229     22.43%     59.23% |        4794     20.56%     79.80% |        4710     20.20%    100.00%
system.ruby.L1Cache_Controller.EE.L1_Replacement::total        23313                      
system.ruby.L1Cache_Controller.EE.Fwd_GETX |           1     50.00%     50.00% |           0      0.00%     50.00% |           0      0.00%     50.00% |           1     50.00%    100.00% |           0      0.00%    100.00%
system.ruby.L1Cache_Controller.EE.Fwd_GETX::total            2                      
system.ruby.L1Cache_Controller.EE.Fwd_GETS |           7     12.50%     12.50% |           8     14.29%     26.79% |          14     25.00%     51.79% |          22     39.29%     91.07% |           5      8.93%    100.00%
system.ruby.L1Cache_Controller.EE.Fwd_GETS::total           56                      
system.ruby.L1Cache_Controller.M.WriteBack |     1136655     75.59%     75.59% |      134816      8.97%     84.56% |       44904      2.99%     87.54% |       49064      3.26%     90.80% |      138279      9.20%    100.00%
system.ruby.L1Cache_Controller.M.WriteBack::total      1503718                      
system.ruby.L1Cache_Controller.M.L0_Invalidate_Own |        6918     95.16%     95.16% |          92      1.27%     96.42% |          72      0.99%     97.41% |          94      1.29%     98.71% |          94      1.29%    100.00%
system.ruby.L1Cache_Controller.M.L0_Invalidate_Own::total         7270                      
system.ruby.L1Cache_Controller.M.L0_Invalidate_Else |         852     48.55%     48.55% |          19      1.08%     49.63% |          94      5.36%     54.99% |         375     21.37%     76.35% |         415     23.65%    100.00%
system.ruby.L1Cache_Controller.M.L0_Invalidate_Else::total         1755                      
system.ruby.L1Cache_Controller.MM.Load   |         105      0.06%      0.06% |       46112     25.20%     25.26% |       44315     24.22%     49.48% |       46855     25.61%     75.08% |       45597     24.92%    100.00%
system.ruby.L1Cache_Controller.MM.Load::total       182984                      
system.ruby.L1Cache_Controller.MM.Store  |          47     95.92%     95.92% |           1      2.04%     97.96% |           1      2.04%    100.00% |           0      0.00%    100.00% |           0      0.00%    100.00%
system.ruby.L1Cache_Controller.MM.Store::total           49                      
system.ruby.L1Cache_Controller.MM.Inv    |        8600     22.05%     22.05% |        6576     16.86%     38.91% |        5304     13.60%     52.50% |        9076     23.27%     75.77% |        9450     24.23%    100.00%
system.ruby.L1Cache_Controller.MM.Inv::total        39006                      
system.ruby.L1Cache_Controller.MM.L1_Replacement |     1135426     32.05%     32.05% |      646409     18.25%     50.30% |      648507     18.31%     68.60% |      553327     15.62%     84.22% |      558985     15.78%    100.00%
system.ruby.L1Cache_Controller.MM.L1_Replacement::total      3542654                      
system.ruby.L1Cache_Controller.MM.Fwd_GETX |           0      0.00%      0.00% |           2     18.18%     18.18% |           3     27.27%     45.45% |           4     36.36%     81.82% |           2     18.18%    100.00%
system.ruby.L1Cache_Controller.MM.Fwd_GETX::total           11                      
system.ruby.L1Cache_Controller.MM.Fwd_GETS |        1534      0.83%      0.83% |          12      0.01%      0.84% |        2904      1.58%      2.41% |       92264     50.04%     52.46% |       87661     47.54%    100.00%
system.ruby.L1Cache_Controller.MM.Fwd_GETS::total       184375                      
system.ruby.L1Cache_Controller.IS.Data_Exclusive |        5867      0.24%      0.24% |      576206     23.21%     23.44% |      665895     26.82%     50.26% |      662164     26.67%     76.93% |      572767     23.07%    100.00%
system.ruby.L1Cache_Controller.IS.Data_Exclusive::total      2482899                      
system.ruby.L1Cache_Controller.IS.DataS_fromL1 |          43      0.02%      0.02% |       89429     47.92%     47.94% |         970      0.52%     48.46% |        2836      1.52%     49.98% |       93349     50.02%    100.00%
system.ruby.L1Cache_Controller.IS.DataS_fromL1::total       186627                      
system.ruby.L1Cache_Controller.IS.Data_all_Acks |          11      0.30%      0.30% |         942     25.84%     26.14% |         882     24.19%     50.33% |         880     24.14%     74.47% |         931     25.53%    100.00%
system.ruby.L1Cache_Controller.IS.Data_all_Acks::total         3646                      
system.ruby.L1Cache_Controller.IM.Data_all_Acks |     1144361     99.99%     99.99% |          14      0.00%    100.00% |          16      0.00%    100.00% |          19      0.00%    100.00% |          22      0.00%    100.00%
system.ruby.L1Cache_Controller.IM.Data_all_Acks::total      1144432                      
system.ruby.L1Cache_Controller.SM.Ack    |          64      0.03%      0.03% |       89420     47.92%     47.96% |         952      0.51%     48.47% |        2823      1.51%     49.98% |       93335     50.02%    100.00%
system.ruby.L1Cache_Controller.SM.Ack::total       186594                      
system.ruby.L1Cache_Controller.SM.Ack_all |          45      0.02%      0.02% |       89420     47.93%     47.95% |         951      0.51%     48.46% |        2823      1.51%     49.97% |       93335     50.03%    100.00%
system.ruby.L1Cache_Controller.SM.Ack_all::total       186574                      
system.ruby.L1Cache_Controller.M_I.Inv   |           0      0.00%      0.00% |           0      0.00%      0.00% |           0      0.00%      0.00% |           1     50.00%     50.00% |           1     50.00%    100.00%
system.ruby.L1Cache_Controller.M_I.Inv::total            2                      
system.ruby.L1Cache_Controller.M_I.Fwd_GETS |           0      0.00%      0.00% |           0      0.00%      0.00% |           0      0.00%      0.00% |         428     19.49%     19.49% |        1768     80.51%    100.00%
system.ruby.L1Cache_Controller.M_I.Fwd_GETS::total         2196                      
system.ruby.L1Cache_Controller.M_I.WB_Ack |     1139221     31.97%     31.97% |      651194     18.27%     50.24% |      653736     18.34%     68.58% |      557692     15.65%     84.23% |      561926     15.77%    100.00%
system.ruby.L1Cache_Controller.M_I.WB_Ack::total      3563769                      
system.ruby.L1Cache_Controller.SINK_WB_ACK.WB_Ack |           0      0.00%      0.00% |           0      0.00%      0.00% |           0      0.00%      0.00% |         429     19.52%     19.52% |        1769     80.48%    100.00%
system.ruby.L1Cache_Controller.SINK_WB_ACK.WB_Ack::total         2198                      
system.ruby.L1Cache_Controller.S_IL0.L0_Invalidate_Own |           0      0.00%      0.00% |         918     25.79%     25.79% |         875     24.58%     50.37% |         859     24.13%     74.49% |         908     25.51%    100.00%
system.ruby.L1Cache_Controller.S_IL0.L0_Invalidate_Own::total         3560                      
system.ruby.L1Cache_Controller.S_IL0.L0_Invalidate_Else |           2      3.28%      3.28% |          14     22.95%     26.23% |          13     21.31%     47.54% |          16     26.23%     73.77% |          16     26.23%    100.00%
system.ruby.L1Cache_Controller.S_IL0.L0_Invalidate_Else::total           61                      
system.ruby.L1Cache_Controller.S_IL0.L0_Ack |           2      0.06%      0.06% |         932     25.74%     25.79% |         888     24.52%     50.32% |         875     24.16%     74.48% |         924     25.52%    100.00%
system.ruby.L1Cache_Controller.S_IL0.L0_Ack::total         3621                      
system.ruby.L1Cache_Controller.E_IL0.L0_DataAck |         777      3.83%      3.83% |        3494     17.21%     21.04% |        3151     15.52%     36.57% |        9089     44.78%     81.35% |        3786     18.65%    100.00%
system.ruby.L1Cache_Controller.E_IL0.L0_DataAck::total        20297                      
system.ruby.L1Cache_Controller.E_IL0.L0_Invalidate_Own |        4564     12.27%     12.27% |        8135     21.87%     34.14% |        8001     21.51%     55.66% |        8297     22.31%     77.97% |        8195     22.03%    100.00%
system.ruby.L1Cache_Controller.E_IL0.L0_Invalidate_Own::total        37192                      
system.ruby.L1Cache_Controller.E_IL0.L0_Invalidate_Else |          81      1.06%      1.06% |         394      5.15%      6.21% |         521      6.81%     13.03% |        6150     80.43%     93.46% |         500      6.54%    100.00%
system.ruby.L1Cache_Controller.E_IL0.L0_Invalidate_Else::total         7646                      
system.ruby.L1Cache_Controller.E_IL0.L0_Ack |        3868     15.76%     15.76% |        5035     20.52%     36.28% |        5371     21.89%     58.16% |        5358     21.83%     80.00% |        4909     20.00%    100.00%
system.ruby.L1Cache_Controller.E_IL0.L0_Ack::total        24541                      
system.ruby.L1Cache_Controller.M_IL0.L0_DataAck |        7716     89.30%     89.30% |          25      0.29%     89.58% |         101      1.17%     90.75% |         384      4.44%     95.20% |         415      4.80%    100.00%
system.ruby.L1Cache_Controller.M_IL0.L0_DataAck::total         8641                      
system.ruby.L1Cache_Controller.M_IL0.L0_Invalidate_Own |        6918     95.16%     95.16% |          92      1.27%     96.42% |          72      0.99%     97.41% |          94      1.29%     98.71% |          94      1.29%    100.00%
system.ruby.L1Cache_Controller.M_IL0.L0_Invalidate_Own::total         7270                      
system.ruby.L1Cache_Controller.M_IL0.L0_Invalidate_Else |         852     48.55%     48.55% |          19      1.08%     49.63% |          94      5.36%     54.99% |         375     21.37%     76.35% |         415     23.65%    100.00%
system.ruby.L1Cache_Controller.M_IL0.L0_Invalidate_Else::total         1755                      
system.ruby.L1Cache_Controller.M_IL0.L0_Ack |          54     14.06%     14.06% |          86     22.40%     36.46% |          65     16.93%     53.39% |          85     22.14%     75.52% |          94     24.48%    100.00%
system.ruby.L1Cache_Controller.M_IL0.L0_Ack::total          384                      
system.ruby.L2Cache_Controller.L1_GETS        2673206      0.00%      0.00%
system.ruby.L2Cache_Controller.L1_GETX        1144442      0.00%      0.00%
system.ruby.L2Cache_Controller.L1_UPGRADE       186574      0.00%      0.00%
system.ruby.L2Cache_Controller.L1_PUTX        3568160      0.00%      0.00%
system.ruby.L2Cache_Controller.L1_PUTX_old            4      0.00%      0.00%
system.ruby.L2Cache_Controller.L2_Replacement       464291      0.00%      0.00%
system.ruby.L2Cache_Controller.L2_Replacement_clean       147799      0.00%      0.00%
system.ruby.L2Cache_Controller.Mem_Data       1190848      0.00%      0.00%
system.ruby.L2Cache_Controller.Mem_Ack         612090      0.00%      0.00%
system.ruby.L2Cache_Controller.WB_Data         215169      0.00%      0.00%
system.ruby.L2Cache_Controller.WB_Data_clean        10466      0.00%      0.00%
system.ruby.L2Cache_Controller.Ack                124      0.00%      0.00%
system.ruby.L2Cache_Controller.Ack_all           1215      0.00%      0.00%
system.ruby.L2Cache_Controller.Unblock         186627      0.00%      0.00%
system.ruby.L2Cache_Controller.Exclusive_Unblock      3813905      0.00%      0.00%
system.ruby.L2Cache_Controller.NP.L1_GETS       433005      0.00%      0.00%
system.ruby.L2Cache_Controller.NP.L1_GETX       757843      0.00%      0.00%
system.ruby.L2Cache_Controller.NP.L1_PUTX_old            2      0.00%      0.00%
system.ruby.L2Cache_Controller.SS.L1_GETS         3577      0.00%      0.00%
system.ruby.L2Cache_Controller.SS.L1_UPGRADE       186574      0.00%      0.00%
system.ruby.L2Cache_Controller.SS.L1_PUTX         2196      0.00%      0.00%
system.ruby.L2Cache_Controller.SS.L2_Replacement           24      0.00%      0.00%
system.ruby.L2Cache_Controller.SS.L2_Replacement_clean           21      0.00%      0.00%
system.ruby.L2Cache_Controller.M.L1_GETS      2049918      0.00%      0.00%
system.ruby.L2Cache_Controller.M.L1_GETX       386576      0.00%      0.00%
system.ruby.L2Cache_Controller.M.L2_Replacement       460261      0.00%      0.00%
system.ruby.L2Cache_Controller.M.L2_Replacement_clean       111606      0.00%      0.00%
system.ruby.L2Cache_Controller.MT.L1_GETS       186627      0.00%      0.00%
system.ruby.L2Cache_Controller.MT.L1_GETX           13      0.00%      0.00%
system.ruby.L2Cache_Controller.MT.L1_PUTX      3563769      0.00%      0.00%
system.ruby.L2Cache_Controller.MT.L2_Replacement         4006      0.00%      0.00%
system.ruby.L2Cache_Controller.MT.L2_Replacement_clean        36172      0.00%      0.00%
system.ruby.L2Cache_Controller.M_I.L1_GETS           28      0.00%      0.00%
system.ruby.L2Cache_Controller.M_I.L1_GETX            4      0.00%      0.00%
system.ruby.L2Cache_Controller.M_I.Mem_Ack       612090      0.00%      0.00%
system.ruby.L2Cache_Controller.MT_I.WB_Data         3190      0.00%      0.00%
system.ruby.L2Cache_Controller.MT_I.WB_Data_clean          245      0.00%      0.00%
system.ruby.L2Cache_Controller.MT_I.Ack_all          571      0.00%      0.00%
system.ruby.L2Cache_Controller.MCT_I.L1_PUTX_old            2      0.00%      0.00%
system.ruby.L2Cache_Controller.MCT_I.WB_Data        25367      0.00%      0.00%
system.ruby.L2Cache_Controller.MCT_I.WB_Data_clean        10206      0.00%      0.00%
system.ruby.L2Cache_Controller.MCT_I.Ack_all          599      0.00%      0.00%
system.ruby.L2Cache_Controller.I_I.L1_GETS            1      0.00%      0.00%
system.ruby.L2Cache_Controller.I_I.Ack             63      0.00%      0.00%
system.ruby.L2Cache_Controller.I_I.Ack_all           21      0.00%      0.00%
system.ruby.L2Cache_Controller.S_I.Ack             61      0.00%      0.00%
system.ruby.L2Cache_Controller.S_I.Ack_all           24      0.00%      0.00%
system.ruby.L2Cache_Controller.ISS.L1_GETS           24      0.00%      0.00%
system.ruby.L2Cache_Controller.ISS.Mem_Data       432981      0.00%      0.00%
system.ruby.L2Cache_Controller.IS.L1_GETS           21      0.00%      0.00%
system.ruby.L2Cache_Controller.IS.Mem_Data           24      0.00%      0.00%
system.ruby.L2Cache_Controller.IM.L1_GETX            3      0.00%      0.00%
system.ruby.L2Cache_Controller.IM.Mem_Data       757843      0.00%      0.00%
system.ruby.L2Cache_Controller.SS_MB.Exclusive_Unblock       186574      0.00%      0.00%
system.ruby.L2Cache_Controller.MT_MB.L1_GETS            2      0.00%      0.00%
system.ruby.L2Cache_Controller.MT_MB.L1_GETX            3      0.00%      0.00%
system.ruby.L2Cache_Controller.MT_MB.Exclusive_Unblock      3627331      0.00%      0.00%
system.ruby.L2Cache_Controller.MT_IIB.L1_GETS            3      0.00%      0.00%
system.ruby.L2Cache_Controller.MT_IIB.L1_PUTX         2195      0.00%      0.00%
system.ruby.L2Cache_Controller.MT_IIB.WB_Data       182813      0.00%      0.00%
system.ruby.L2Cache_Controller.MT_IIB.WB_Data_clean           15      0.00%      0.00%
system.ruby.L2Cache_Controller.MT_IIB.Unblock         3799      0.00%      0.00%
system.ruby.L2Cache_Controller.MT_IB.WB_Data         3799      0.00%      0.00%
system.ruby.L2Cache_Controller.MT_SB.Unblock       182828      0.00%      0.00%

---------- End Simulation Statistics   ----------
