
---------- Begin Simulation Statistics ----------
sim_seconds                                  0.117054                       # Number of seconds simulated
sim_ticks                                117053532000                       # Number of ticks simulated
final_tick                               117053532000                       # Number of ticks from beginning of simulation (restored from checkpoints and never reset)
sim_freq                                 1000000000000                       # Frequency of simulated ticks
host_inst_rate                                 130491                       # Simulator instruction rate (inst/s)
host_op_rate                                   360398                       # Simulator op (including micro ops) rate (op/s)
host_tick_rate                              223487140                       # Simulator tick rate (ticks/s)
host_mem_usage                                 781696                       # Number of bytes of host memory used
host_seconds                                   523.76                       # Real time elapsed on the host
sim_insts                                    68346079                       # Number of instructions simulated
sim_ops                                     188762042                       # Number of ops (including micro ops) simulated
system.voltage_domain.voltage                       1                       # Voltage in Volts
system.clk_domain.clock                          1000                       # Clock period in ticks
system.mem_ctrls.bytes_read::ruby.dir_cntrl0      4076352                       # Number of bytes read from this memory
system.mem_ctrls.bytes_read::total            4076352                       # Number of bytes read from this memory
system.mem_ctrls.num_reads::ruby.dir_cntrl0        63693                       # Number of read requests responded to by this memory
system.mem_ctrls.num_reads::total               63693                       # Number of read requests responded to by this memory
system.mem_ctrls.bw_read::ruby.dir_cntrl0     34824682                       # Total read bandwidth from this memory (bytes/s)
system.mem_ctrls.bw_read::total              34824682                       # Total read bandwidth from this memory (bytes/s)
system.mem_ctrls.bw_total::ruby.dir_cntrl0     34824682                       # Total bandwidth to/from this memory (bytes/s)
system.mem_ctrls.bw_total::total             34824682                       # Total bandwidth to/from this memory (bytes/s)
system.mem_ctrls.readReqs                       63693                       # Number of read requests accepted
system.mem_ctrls.writeReqs                          0                       # Number of write requests accepted
system.mem_ctrls.readBursts                     63693                       # Number of DRAM read bursts, including those serviced by the write queue
system.mem_ctrls.writeBursts                        0                       # Number of DRAM write bursts, including those merged in the write queue
system.mem_ctrls.bytesReadDRAM                4076352                       # Total number of bytes read from DRAM
system.mem_ctrls.bytesReadWrQ                       0                       # Total number of bytes read from write queue
system.mem_ctrls.bytesWritten                       0                       # Total number of bytes written to DRAM
system.mem_ctrls.bytesReadSys                 4076352                       # Total read bytes from the system interface side
system.mem_ctrls.bytesWrittenSys                    0                       # Total written bytes from the system interface side
system.mem_ctrls.servicedByWrQ                      0                       # Number of DRAM read bursts serviced by the write queue
system.mem_ctrls.mergedWrBursts                     0                       # Number of DRAM write bursts merged with an existing one
system.mem_ctrls.neitherReadNorWriteReqs            0                       # Number of requests that are neither read nor write
system.mem_ctrls.perBankRdBursts::0              3937                       # Per bank write bursts
system.mem_ctrls.perBankRdBursts::1              3940                       # Per bank write bursts
system.mem_ctrls.perBankRdBursts::2              3866                       # Per bank write bursts
system.mem_ctrls.perBankRdBursts::3              3712                       # Per bank write bursts
system.mem_ctrls.perBankRdBursts::4              3836                       # Per bank write bursts
system.mem_ctrls.perBankRdBursts::5              3832                       # Per bank write bursts
system.mem_ctrls.perBankRdBursts::6              4125                       # Per bank write bursts
system.mem_ctrls.perBankRdBursts::7              4183                       # Per bank write bursts
system.mem_ctrls.perBankRdBursts::8              4010                       # Per bank write bursts
system.mem_ctrls.perBankRdBursts::9              4108                       # Per bank write bursts
system.mem_ctrls.perBankRdBursts::10             4175                       # Per bank write bursts
system.mem_ctrls.perBankRdBursts::11             4225                       # Per bank write bursts
system.mem_ctrls.perBankRdBursts::12             4053                       # Per bank write bursts
system.mem_ctrls.perBankRdBursts::13             3929                       # Per bank write bursts
system.mem_ctrls.perBankRdBursts::14             3871                       # Per bank write bursts
system.mem_ctrls.perBankRdBursts::15             3891                       # Per bank write bursts
system.mem_ctrls.perBankWrBursts::0                 0                       # Per bank write bursts
system.mem_ctrls.perBankWrBursts::1                 0                       # Per bank write bursts
system.mem_ctrls.perBankWrBursts::2                 0                       # Per bank write bursts
system.mem_ctrls.perBankWrBursts::3                 0                       # Per bank write bursts
system.mem_ctrls.perBankWrBursts::4                 0                       # Per bank write bursts
system.mem_ctrls.perBankWrBursts::5                 0                       # Per bank write bursts
system.mem_ctrls.perBankWrBursts::6                 0                       # Per bank write bursts
system.mem_ctrls.perBankWrBursts::7                 0                       # Per bank write bursts
system.mem_ctrls.perBankWrBursts::8                 0                       # Per bank write bursts
system.mem_ctrls.perBankWrBursts::9                 0                       # Per bank write bursts
system.mem_ctrls.perBankWrBursts::10                0                       # Per bank write bursts
system.mem_ctrls.perBankWrBursts::11                0                       # Per bank write bursts
system.mem_ctrls.perBankWrBursts::12                0                       # Per bank write bursts
system.mem_ctrls.perBankWrBursts::13                0                       # Per bank write bursts
system.mem_ctrls.perBankWrBursts::14                0                       # Per bank write bursts
system.mem_ctrls.perBankWrBursts::15                0                       # Per bank write bursts
system.mem_ctrls.numRdRetry                         0                       # Number of times read queue was full causing retry
system.mem_ctrls.numWrRetry                         0                       # Number of times write queue was full causing retry
system.mem_ctrls.totGap                  117053469000                       # Total gap between requests
system.mem_ctrls.readPktSize::0                     0                       # Read request sizes (log2)
system.mem_ctrls.readPktSize::1                     0                       # Read request sizes (log2)
system.mem_ctrls.readPktSize::2                     0                       # Read request sizes (log2)
system.mem_ctrls.readPktSize::3                     0                       # Read request sizes (log2)
system.mem_ctrls.readPktSize::4                     0                       # Read request sizes (log2)
system.mem_ctrls.readPktSize::5                     0                       # Read request sizes (log2)
system.mem_ctrls.readPktSize::6                 63693                       # Read request sizes (log2)
system.mem_ctrls.writePktSize::0                    0                       # Write request sizes (log2)
system.mem_ctrls.writePktSize::1                    0                       # Write request sizes (log2)
system.mem_ctrls.writePktSize::2                    0                       # Write request sizes (log2)
system.mem_ctrls.writePktSize::3                    0                       # Write request sizes (log2)
system.mem_ctrls.writePktSize::4                    0                       # Write request sizes (log2)
system.mem_ctrls.writePktSize::5                    0                       # Write request sizes (log2)
system.mem_ctrls.writePktSize::6                    0                       # Write request sizes (log2)
system.mem_ctrls.rdQLenPdf::0                   63691                       # What read queue length does an incoming req see
system.mem_ctrls.rdQLenPdf::1                       2                       # What read queue length does an incoming req see
system.mem_ctrls.rdQLenPdf::2                       0                       # What read queue length does an incoming req see
system.mem_ctrls.rdQLenPdf::3                       0                       # What read queue length does an incoming req see
system.mem_ctrls.rdQLenPdf::4                       0                       # What read queue length does an incoming req see
system.mem_ctrls.rdQLenPdf::5                       0                       # What read queue length does an incoming req see
system.mem_ctrls.rdQLenPdf::6                       0                       # What read queue length does an incoming req see
system.mem_ctrls.rdQLenPdf::7                       0                       # What read queue length does an incoming req see
system.mem_ctrls.rdQLenPdf::8                       0                       # What read queue length does an incoming req see
system.mem_ctrls.rdQLenPdf::9                       0                       # What read queue length does an incoming req see
system.mem_ctrls.rdQLenPdf::10                      0                       # What read queue length does an incoming req see
system.mem_ctrls.rdQLenPdf::11                      0                       # What read queue length does an incoming req see
system.mem_ctrls.rdQLenPdf::12                      0                       # What read queue length does an incoming req see
system.mem_ctrls.rdQLenPdf::13                      0                       # What read queue length does an incoming req see
system.mem_ctrls.rdQLenPdf::14                      0                       # What read queue length does an incoming req see
system.mem_ctrls.rdQLenPdf::15                      0                       # What read queue length does an incoming req see
system.mem_ctrls.rdQLenPdf::16                      0                       # What read queue length does an incoming req see
system.mem_ctrls.rdQLenPdf::17                      0                       # What read queue length does an incoming req see
system.mem_ctrls.rdQLenPdf::18                      0                       # What read queue length does an incoming req see
system.mem_ctrls.rdQLenPdf::19                      0                       # What read queue length does an incoming req see
system.mem_ctrls.rdQLenPdf::20                      0                       # What read queue length does an incoming req see
system.mem_ctrls.rdQLenPdf::21                      0                       # What read queue length does an incoming req see
system.mem_ctrls.rdQLenPdf::22                      0                       # What read queue length does an incoming req see
system.mem_ctrls.rdQLenPdf::23                      0                       # What read queue length does an incoming req see
system.mem_ctrls.rdQLenPdf::24                      0                       # What read queue length does an incoming req see
system.mem_ctrls.rdQLenPdf::25                      0                       # What read queue length does an incoming req see
system.mem_ctrls.rdQLenPdf::26                      0                       # What read queue length does an incoming req see
system.mem_ctrls.rdQLenPdf::27                      0                       # What read queue length does an incoming req see
system.mem_ctrls.rdQLenPdf::28                      0                       # What read queue length does an incoming req see
system.mem_ctrls.rdQLenPdf::29                      0                       # What read queue length does an incoming req see
system.mem_ctrls.rdQLenPdf::30                      0                       # What read queue length does an incoming req see
system.mem_ctrls.rdQLenPdf::31                      0                       # What read queue length does an incoming req see
system.mem_ctrls.wrQLenPdf::0                       0                       # What write queue length does an incoming req see
system.mem_ctrls.wrQLenPdf::1                       0                       # What write queue length does an incoming req see
system.mem_ctrls.wrQLenPdf::2                       0                       # What write queue length does an incoming req see
system.mem_ctrls.wrQLenPdf::3                       0                       # What write queue length does an incoming req see
system.mem_ctrls.wrQLenPdf::4                       0                       # What write queue length does an incoming req see
system.mem_ctrls.wrQLenPdf::5                       0                       # What write queue length does an incoming req see
system.mem_ctrls.wrQLenPdf::6                       0                       # What write queue length does an incoming req see
system.mem_ctrls.wrQLenPdf::7                       0                       # What write queue length does an incoming req see
system.mem_ctrls.wrQLenPdf::8                       0                       # What write queue length does an incoming req see
system.mem_ctrls.wrQLenPdf::9                       0                       # What write queue length does an incoming req see
system.mem_ctrls.wrQLenPdf::10                      0                       # What write queue length does an incoming req see
system.mem_ctrls.wrQLenPdf::11                      0                       # What write queue length does an incoming req see
system.mem_ctrls.wrQLenPdf::12                      0                       # What write queue length does an incoming req see
system.mem_ctrls.wrQLenPdf::13                      0                       # What write queue length does an incoming req see
system.mem_ctrls.wrQLenPdf::14                      0                       # What write queue length does an incoming req see
system.mem_ctrls.wrQLenPdf::15                      0                       # What write queue length does an incoming req see
system.mem_ctrls.wrQLenPdf::16                      0                       # What write queue length does an incoming req see
system.mem_ctrls.wrQLenPdf::17                      0                       # What write queue length does an incoming req see
system.mem_ctrls.wrQLenPdf::18                      0                       # What write queue length does an incoming req see
system.mem_ctrls.wrQLenPdf::19                      0                       # What write queue length does an incoming req see
system.mem_ctrls.wrQLenPdf::20                      0                       # What write queue length does an incoming req see
system.mem_ctrls.wrQLenPdf::21                      0                       # What write queue length does an incoming req see
system.mem_ctrls.wrQLenPdf::22                      0                       # What write queue length does an incoming req see
system.mem_ctrls.wrQLenPdf::23                      0                       # What write queue length does an incoming req see
system.mem_ctrls.wrQLenPdf::24                      0                       # What write queue length does an incoming req see
system.mem_ctrls.wrQLenPdf::25                      0                       # What write queue length does an incoming req see
system.mem_ctrls.wrQLenPdf::26                      0                       # What write queue length does an incoming req see
system.mem_ctrls.wrQLenPdf::27                      0                       # What write queue length does an incoming req see
system.mem_ctrls.wrQLenPdf::28                      0                       # What write queue length does an incoming req see
system.mem_ctrls.wrQLenPdf::29                      0                       # What write queue length does an incoming req see
system.mem_ctrls.wrQLenPdf::30                      0                       # What write queue length does an incoming req see
system.mem_ctrls.wrQLenPdf::31                      0                       # What write queue length does an incoming req see
system.mem_ctrls.wrQLenPdf::32                      0                       # What write queue length does an incoming req see
system.mem_ctrls.wrQLenPdf::33                      0                       # What write queue length does an incoming req see
system.mem_ctrls.wrQLenPdf::34                      0                       # What write queue length does an incoming req see
system.mem_ctrls.wrQLenPdf::35                      0                       # What write queue length does an incoming req see
system.mem_ctrls.wrQLenPdf::36                      0                       # What write queue length does an incoming req see
system.mem_ctrls.wrQLenPdf::37                      0                       # What write queue length does an incoming req see
system.mem_ctrls.wrQLenPdf::38                      0                       # What write queue length does an incoming req see
system.mem_ctrls.wrQLenPdf::39                      0                       # What write queue length does an incoming req see
system.mem_ctrls.wrQLenPdf::40                      0                       # What write queue length does an incoming req see
system.mem_ctrls.wrQLenPdf::41                      0                       # What write queue length does an incoming req see
system.mem_ctrls.wrQLenPdf::42                      0                       # What write queue length does an incoming req see
system.mem_ctrls.wrQLenPdf::43                      0                       # What write queue length does an incoming req see
system.mem_ctrls.wrQLenPdf::44                      0                       # What write queue length does an incoming req see
system.mem_ctrls.wrQLenPdf::45                      0                       # What write queue length does an incoming req see
system.mem_ctrls.wrQLenPdf::46                      0                       # What write queue length does an incoming req see
system.mem_ctrls.wrQLenPdf::47                      0                       # What write queue length does an incoming req see
system.mem_ctrls.wrQLenPdf::48                      0                       # What write queue length does an incoming req see
system.mem_ctrls.wrQLenPdf::49                      0                       # What write queue length does an incoming req see
system.mem_ctrls.wrQLenPdf::50                      0                       # What write queue length does an incoming req see
system.mem_ctrls.wrQLenPdf::51                      0                       # What write queue length does an incoming req see
system.mem_ctrls.wrQLenPdf::52                      0                       # What write queue length does an incoming req see
system.mem_ctrls.wrQLenPdf::53                      0                       # What write queue length does an incoming req see
system.mem_ctrls.wrQLenPdf::54                      0                       # What write queue length does an incoming req see
system.mem_ctrls.wrQLenPdf::55                      0                       # What write queue length does an incoming req see
system.mem_ctrls.wrQLenPdf::56                      0                       # What write queue length does an incoming req see
system.mem_ctrls.wrQLenPdf::57                      0                       # What write queue length does an incoming req see
system.mem_ctrls.wrQLenPdf::58                      0                       # What write queue length does an incoming req see
system.mem_ctrls.wrQLenPdf::59                      0                       # What write queue length does an incoming req see
system.mem_ctrls.wrQLenPdf::60                      0                       # What write queue length does an incoming req see
system.mem_ctrls.wrQLenPdf::61                      0                       # What write queue length does an incoming req see
system.mem_ctrls.wrQLenPdf::62                      0                       # What write queue length does an incoming req see
system.mem_ctrls.wrQLenPdf::63                      0                       # What write queue length does an incoming req see
system.mem_ctrls.bytesPerActivate::samples        15512                       # Bytes accessed per row activation
system.mem_ctrls.bytesPerActivate::mean    262.663228                       # Bytes accessed per row activation
system.mem_ctrls.bytesPerActivate::gmean   251.599728                       # Bytes accessed per row activation
system.mem_ctrls.bytesPerActivate::stdev    72.252164                       # Bytes accessed per row activation
system.mem_ctrls.bytesPerActivate::0-127          597      3.85%      3.85% # Bytes accessed per row activation
system.mem_ctrls.bytesPerActivate::128-255          688      4.44%      8.28% # Bytes accessed per row activation
system.mem_ctrls.bytesPerActivate::256-383        13926     89.78%     98.06% # Bytes accessed per row activation
system.mem_ctrls.bytesPerActivate::384-511          190      1.22%     99.28% # Bytes accessed per row activation
system.mem_ctrls.bytesPerActivate::512-639           31      0.20%     99.48% # Bytes accessed per row activation
system.mem_ctrls.bytesPerActivate::640-767           21      0.14%     99.62% # Bytes accessed per row activation
system.mem_ctrls.bytesPerActivate::768-895           12      0.08%     99.70% # Bytes accessed per row activation
system.mem_ctrls.bytesPerActivate::896-1023            8      0.05%     99.75% # Bytes accessed per row activation
system.mem_ctrls.bytesPerActivate::1024-1151           39      0.25%    100.00% # Bytes accessed per row activation
system.mem_ctrls.bytesPerActivate::total        15512                       # Bytes accessed per row activation
system.mem_ctrls.totQLat                    717193999                       # Total ticks spent queuing
system.mem_ctrls.totMemAccLat              1911437749                       # Total ticks spent from burst creation until serviced by the DRAM
system.mem_ctrls.totBusLat                  318465000                       # Total ticks spent in databus transfers
system.mem_ctrls.avgQLat                     11260.17                       # Average queueing delay per DRAM burst
system.mem_ctrls.avgBusLat                    5000.00                       # Average bus latency per DRAM burst
system.mem_ctrls.avgMemAccLat                30010.17                       # Average memory access latency per DRAM burst
system.mem_ctrls.avgRdBW                        34.82                       # Average DRAM read bandwidth in MiByte/s
system.mem_ctrls.avgWrBW                         0.00                       # Average achieved write bandwidth in MiByte/s
system.mem_ctrls.avgRdBWSys                     34.82                       # Average system read bandwidth in MiByte/s
system.mem_ctrls.avgWrBWSys                      0.00                       # Average system write bandwidth in MiByte/s
system.mem_ctrls.peakBW                      12800.00                       # Theoretical peak bandwidth in MiByte/s
system.mem_ctrls.busUtil                         0.27                       # Data bus utilization in percentage
system.mem_ctrls.busUtilRead                     0.27                       # Data bus utilization in percentage for reads
system.mem_ctrls.busUtilWrite                    0.00                       # Data bus utilization in percentage for writes
system.mem_ctrls.avgRdQLen                       1.00                       # Average read queue length when enqueuing
system.mem_ctrls.avgWrQLen                       0.00                       # Average write queue length when enqueuing
system.mem_ctrls.readRowHits                    48172                       # Number of row buffer hits during reads
system.mem_ctrls.writeRowHits                       0                       # Number of row buffer hits during writes
system.mem_ctrls.readRowHitRate                 75.63                       # Row buffer hit rate for reads
system.mem_ctrls.writeRowHitRate                  nan                       # Row buffer hit rate for writes
system.mem_ctrls.avgGap                    1837776.04                       # Average gap between requests
system.mem_ctrls.pageHitRate                    75.63                       # Row buffer hit rate, read and write combined
system.mem_ctrls_0.actEnergy                 58559760                       # Energy for activate commands per rank (pJ)
system.mem_ctrls_0.preEnergy                 31952250                       # Energy for precharge commands per rank (pJ)
system.mem_ctrls_0.readEnergy               245099400                       # Energy for read commands per rank (pJ)
system.mem_ctrls_0.writeEnergy                      0                       # Energy for write commands per rank (pJ)
system.mem_ctrls_0.refreshEnergy           7645182480                       # Energy for refresh commands per rank (pJ)
system.mem_ctrls_0.actBackEnergy          36605710935                       # Energy for active background per rank (pJ)
system.mem_ctrls_0.preBackEnergy          38120328000                       # Energy for precharge background per rank (pJ)
system.mem_ctrls_0.totalEnergy            82706832825                       # Total energy per rank (pJ)
system.mem_ctrls_0.averagePower            706.588000                       # Core power per rank (mW)
system.mem_ctrls_0.memoryStateTime::IDLE  63223624500                       # Time in different power states
system.mem_ctrls_0.memoryStateTime::REF    3908580000                       # Time in different power states
system.mem_ctrls_0.memoryStateTime::PRE_PDN            0                       # Time in different power states
system.mem_ctrls_0.memoryStateTime::ACT   49918810500                       # Time in different power states
system.mem_ctrls_0.memoryStateTime::ACT_PDN            0                       # Time in different power states
system.mem_ctrls_1.actEnergy                 58703400                       # Energy for activate commands per rank (pJ)
system.mem_ctrls_1.preEnergy                 32030625                       # Energy for precharge commands per rank (pJ)
system.mem_ctrls_1.readEnergy               251464200                       # Energy for read commands per rank (pJ)
system.mem_ctrls_1.writeEnergy                      0                       # Energy for write commands per rank (pJ)
system.mem_ctrls_1.refreshEnergy           7645182480                       # Energy for refresh commands per rank (pJ)
system.mem_ctrls_1.actBackEnergy          37199794860                       # Energy for active background per rank (pJ)
system.mem_ctrls_1.preBackEnergy          37599174750                       # Energy for precharge background per rank (pJ)
system.mem_ctrls_1.totalEnergy            82786350315                       # Total energy per rank (pJ)
system.mem_ctrls_1.averagePower            707.267612                       # Core power per rank (mW)
system.mem_ctrls_1.memoryStateTime::IDLE  62352751000                       # Time in different power states
system.mem_ctrls_1.memoryStateTime::REF    3908580000                       # Time in different power states
system.mem_ctrls_1.memoryStateTime::PRE_PDN            0                       # Time in different power states
system.mem_ctrls_1.memoryStateTime::ACT   50789804500                       # Time in different power states
system.mem_ctrls_1.memoryStateTime::ACT_PDN            0                       # Time in different power states
system.cpu_voltage_domain.voltage                   1                       # Voltage in Volts
system.cpu_clk_domain.clock                       500                       # Clock period in ticks
system.cpu0.apic_clk_domain.clock                8000                       # Clock period in ticks
system.cpu0.workload.num_syscalls                  61                       # Number of system calls
system.cpu0.numCycles                       234107064                       # number of cpu cycles simulated
system.cpu0.numWorkItemsStarted                     0                       # number of work items this cpu started
system.cpu0.numWorkItemsCompleted                   0                       # number of work items this cpu completed
system.cpu0.committedInsts                   65468563                       # Number of instructions committed
system.cpu0.committedOps                    183008571                       # Number of ops (including micro ops) committed
system.cpu0.num_int_alu_accesses            173012713                       # Number of integer alu accesses
system.cpu0.num_fp_alu_accesses               4677674                       # Number of float alu accesses
system.cpu0.num_func_calls                    6140940                       # number of times a function call or return occured
system.cpu0.num_conditional_control_insts     13943826                       # number of instructions that are conditional controls
system.cpu0.num_int_insts                   173012713                       # number of integer instructions
system.cpu0.num_fp_insts                      4677674                       # number of float instructions
system.cpu0.num_int_register_reads          364533999                       # number of times the integer registers were read
system.cpu0.num_int_register_writes         171943226                       # number of times the integer registers were written
system.cpu0.num_fp_register_reads             7498257                       # number of times the floating registers were read
system.cpu0.num_fp_register_writes            3715154                       # number of times the floating registers were written
system.cpu0.num_cc_register_reads           144769337                       # number of times the CC registers were read
system.cpu0.num_cc_register_writes           54610276                       # number of times the CC registers were written
system.cpu0.num_mem_refs                     28369688                       # number of memory refs
system.cpu0.num_load_insts                   17555492                       # Number of load instructions
system.cpu0.num_store_insts                  10814196                       # Number of store instructions
system.cpu0.num_idle_cycles                  0.002000                       # Number of idle cycles
system.cpu0.num_busy_cycles              234107063.998000                       # Number of busy cycles
system.cpu0.not_idle_fraction                1.000000                       # Percentage of non-idle cycles
system.cpu0.idle_fraction                    0.000000                       # Percentage of idle cycles
system.cpu0.Branches                         23087955                       # Number of branches fetched
system.cpu0.op_class::No_OpClass              3084846      1.69%      1.69% # Class of executed instruction
system.cpu0.op_class::IntAlu                132517211     72.41%     74.10% # Class of executed instruction
system.cpu0.op_class::IntMult                     322      0.00%     74.10% # Class of executed instruction
system.cpu0.op_class::IntDiv                 15322044      8.37%     82.47% # Class of executed instruction
system.cpu0.op_class::FloatAdd                3714460      2.03%     84.50% # Class of executed instruction
system.cpu0.op_class::FloatCmp                      0      0.00%     84.50% # Class of executed instruction
system.cpu0.op_class::FloatCvt                      0      0.00%     84.50% # Class of executed instruction
system.cpu0.op_class::FloatMult                     0      0.00%     84.50% # Class of executed instruction
system.cpu0.op_class::FloatDiv                      0      0.00%     84.50% # Class of executed instruction
system.cpu0.op_class::FloatSqrt                     0      0.00%     84.50% # Class of executed instruction
system.cpu0.op_class::SimdAdd                       0      0.00%     84.50% # Class of executed instruction
system.cpu0.op_class::SimdAddAcc                    0      0.00%     84.50% # Class of executed instruction
system.cpu0.op_class::SimdAlu                       0      0.00%     84.50% # Class of executed instruction
system.cpu0.op_class::SimdCmp                       0      0.00%     84.50% # Class of executed instruction
system.cpu0.op_class::SimdCvt                       0      0.00%     84.50% # Class of executed instruction
system.cpu0.op_class::SimdMisc                      0      0.00%     84.50% # Class of executed instruction
system.cpu0.op_class::SimdMult                      0      0.00%     84.50% # Class of executed instruction
system.cpu0.op_class::SimdMultAcc                   0      0.00%     84.50% # Class of executed instruction
system.cpu0.op_class::SimdShift                     0      0.00%     84.50% # Class of executed instruction
system.cpu0.op_class::SimdShiftAcc                  0      0.00%     84.50% # Class of executed instruction
system.cpu0.op_class::SimdSqrt                      0      0.00%     84.50% # Class of executed instruction
system.cpu0.op_class::SimdFloatAdd                  0      0.00%     84.50% # Class of executed instruction
system.cpu0.op_class::SimdFloatAlu                  0      0.00%     84.50% # Class of executed instruction
system.cpu0.op_class::SimdFloatCmp                  0      0.00%     84.50% # Class of executed instruction
system.cpu0.op_class::SimdFloatCvt                  0      0.00%     84.50% # Class of executed instruction
system.cpu0.op_class::SimdFloatDiv                  0      0.00%     84.50% # Class of executed instruction
system.cpu0.op_class::SimdFloatMisc                 0      0.00%     84.50% # Class of executed instruction
system.cpu0.op_class::SimdFloatMult                 0      0.00%     84.50% # Class of executed instruction
system.cpu0.op_class::SimdFloatMultAcc              0      0.00%     84.50% # Class of executed instruction
system.cpu0.op_class::SimdFloatSqrt                 0      0.00%     84.50% # Class of executed instruction
system.cpu0.op_class::MemRead                17555492      9.59%     94.09% # Class of executed instruction
system.cpu0.op_class::MemWrite               10814196      5.91%    100.00% # Class of executed instruction
system.cpu0.op_class::IprAccess                     0      0.00%    100.00% # Class of executed instruction
system.cpu0.op_class::InstPrefetch                  0      0.00%    100.00% # Class of executed instruction
system.cpu0.op_class::total                 183008571                       # Class of executed instruction
system.cpu1.apic_clk_domain.clock                8000                       # Clock period in ticks
system.cpu1.numCycles                       233896835                       # number of cpu cycles simulated
system.cpu1.numWorkItemsStarted                     0                       # number of work items this cpu started
system.cpu1.numWorkItemsCompleted                   0                       # number of work items this cpu completed
system.cpu1.committedInsts                    2877516                       # Number of instructions committed
system.cpu1.committedOps                      5753471                       # Number of ops (including micro ops) committed
system.cpu1.num_int_alu_accesses              4327355                       # Number of integer alu accesses
system.cpu1.num_fp_alu_accesses               2691675                       # Number of float alu accesses
system.cpu1.num_func_calls                      24751                       # number of times a function call or return occured
system.cpu1.num_conditional_control_insts       341144                       # number of instructions that are conditional controls
system.cpu1.num_int_insts                     4327355                       # number of integer instructions
system.cpu1.num_fp_insts                      2691675                       # number of float instructions
system.cpu1.num_int_register_reads            7670140                       # number of times the integer registers were read
system.cpu1.num_int_register_writes           2706596                       # number of times the integer registers were written
system.cpu1.num_fp_register_reads             4167185                       # number of times the floating registers were read
system.cpu1.num_fp_register_writes            2679320                       # number of times the floating registers were written
system.cpu1.num_cc_register_reads             2059260                       # number of times the CC registers were read
system.cpu1.num_cc_register_writes            2052982                       # number of times the CC registers were written
system.cpu1.num_mem_refs                      1330703                       # number of memory refs
system.cpu1.num_load_insts                    1305886                       # Number of load instructions
system.cpu1.num_store_insts                     24817                       # Number of store instructions
system.cpu1.num_idle_cycles              222884370.122396                       # Number of idle cycles
system.cpu1.num_busy_cycles              11012464.877604                       # Number of busy cycles
system.cpu1.not_idle_fraction                0.047083                       # Percentage of non-idle cycles
system.cpu1.idle_fraction                    0.952917                       # Percentage of idle cycles
system.cpu1.Branches                           379810                       # Number of branches fetched
system.cpu1.op_class::No_OpClass                    2      0.00%      0.00% # Class of executed instruction
system.cpu1.op_class::IntAlu                  2959576     51.44%     51.44% # Class of executed instruction
system.cpu1.op_class::IntMult                   37061      0.64%     52.08% # Class of executed instruction
system.cpu1.op_class::IntDiv                       14      0.00%     52.08% # Class of executed instruction
system.cpu1.op_class::FloatAdd                1426115     24.79%     76.87% # Class of executed instruction
system.cpu1.op_class::FloatCmp                      0      0.00%     76.87% # Class of executed instruction
system.cpu1.op_class::FloatCvt                      0      0.00%     76.87% # Class of executed instruction
system.cpu1.op_class::FloatMult                     0      0.00%     76.87% # Class of executed instruction
system.cpu1.op_class::FloatDiv                      0      0.00%     76.87% # Class of executed instruction
system.cpu1.op_class::FloatSqrt                     0      0.00%     76.87% # Class of executed instruction
system.cpu1.op_class::SimdAdd                       0      0.00%     76.87% # Class of executed instruction
system.cpu1.op_class::SimdAddAcc                    0      0.00%     76.87% # Class of executed instruction
system.cpu1.op_class::SimdAlu                       0      0.00%     76.87% # Class of executed instruction
system.cpu1.op_class::SimdCmp                       0      0.00%     76.87% # Class of executed instruction
system.cpu1.op_class::SimdCvt                       0      0.00%     76.87% # Class of executed instruction
system.cpu1.op_class::SimdMisc                      0      0.00%     76.87% # Class of executed instruction
system.cpu1.op_class::SimdMult                      0      0.00%     76.87% # Class of executed instruction
system.cpu1.op_class::SimdMultAcc                   0      0.00%     76.87% # Class of executed instruction
system.cpu1.op_class::SimdShift                     0      0.00%     76.87% # Class of executed instruction
system.cpu1.op_class::SimdShiftAcc                  0      0.00%     76.87% # Class of executed instruction
system.cpu1.op_class::SimdSqrt                      0      0.00%     76.87% # Class of executed instruction
system.cpu1.op_class::SimdFloatAdd                  0      0.00%     76.87% # Class of executed instruction
system.cpu1.op_class::SimdFloatAlu                  0      0.00%     76.87% # Class of executed instruction
system.cpu1.op_class::SimdFloatCmp                  0      0.00%     76.87% # Class of executed instruction
system.cpu1.op_class::SimdFloatCvt                  0      0.00%     76.87% # Class of executed instruction
system.cpu1.op_class::SimdFloatDiv                  0      0.00%     76.87% # Class of executed instruction
system.cpu1.op_class::SimdFloatMisc                 0      0.00%     76.87% # Class of executed instruction
system.cpu1.op_class::SimdFloatMult                 0      0.00%     76.87% # Class of executed instruction
system.cpu1.op_class::SimdFloatMultAcc              0      0.00%     76.87% # Class of executed instruction
system.cpu1.op_class::SimdFloatSqrt                 0      0.00%     76.87% # Class of executed instruction
system.cpu1.op_class::MemRead                 1305886     22.70%     99.57% # Class of executed instruction
system.cpu1.op_class::MemWrite                  24817      0.43%    100.00% # Class of executed instruction
system.cpu1.op_class::IprAccess                     0      0.00%    100.00% # Class of executed instruction
system.cpu1.op_class::InstPrefetch                  0      0.00%    100.00% # Class of executed instruction
system.cpu1.op_class::total                   5753471                       # Class of executed instruction
system.ruby.clk_domain.clock                      500                       # Clock period in ticks
system.ruby.delayHist::bucket_size                  1                       # delay histogram for all message
system.ruby.delayHist::max_bucket                   9                       # delay histogram for all message
system.ruby.delayHist::samples                 688234                       # delay histogram for all message
system.ruby.delayHist::mean                  0.734510                       # delay histogram for all message
system.ruby.delayHist::stdev                 2.308678                       # delay histogram for all message
system.ruby.delayHist                    |      624919     90.80%     90.80% |           0      0.00%     90.80% |          27      0.00%     90.80% |           0      0.00%     90.80% |           1      0.00%     90.80% |         279      0.04%     90.84% |           1      0.00%     90.85% |           0      0.00%     90.85% |       63007      9.15%    100.00% |           0      0.00%    100.00% # delay histogram for all message
system.ruby.delayHist::total                   688234                       # delay histogram for all message
system.ruby.outstanding_req_hist::bucket_size            1                      
system.ruby.outstanding_req_hist::max_bucket            9                      
system.ruby.outstanding_req_hist::samples    117658526                      
system.ruby.outstanding_req_hist::mean       1.000118                      
system.ruby.outstanding_req_hist::gmean      1.000082                      
system.ruby.outstanding_req_hist::stdev      0.010881                      
system.ruby.outstanding_req_hist         |           0      0.00%      0.00% |   117644593     99.99%     99.99% |       13933      0.01%    100.00% |           0      0.00%    100.00% |           0      0.00%    100.00% |           0      0.00%    100.00% |           0      0.00%    100.00% |           0      0.00%    100.00% |           0      0.00%    100.00% |           0      0.00%    100.00%
system.ruby.outstanding_req_hist::total     117658526                      
system.ruby.latency_hist::bucket_size             128                      
system.ruby.latency_hist::max_bucket             1279                      
system.ruby.latency_hist::samples           117658526                      
system.ruby.latency_hist::mean               1.083570                      
system.ruby.latency_hist::gmean              1.004253                      
system.ruby.latency_hist::stdev              3.834026                      
system.ruby.latency_hist                 |   117643003     99.99%     99.99% |       13074      0.01%    100.00% |          92      0.00%    100.00% |         659      0.00%    100.00% |        1509      0.00%    100.00% |         189      0.00%    100.00% |           0      0.00%    100.00% |           0      0.00%    100.00% |           0      0.00%    100.00% |           0      0.00%    100.00%
system.ruby.latency_hist::total             117658526                      
system.ruby.hit_latency_hist::bucket_size          128                      
system.ruby.hit_latency_hist::max_bucket         1279                      
system.ruby.hit_latency_hist::samples       117658526                      
system.ruby.hit_latency_hist::mean           1.083570                      
system.ruby.hit_latency_hist::gmean          1.004253                      
system.ruby.hit_latency_hist::stdev          3.834026                      
system.ruby.hit_latency_hist             |   117643003     99.99%     99.99% |       13074      0.01%    100.00% |          92      0.00%    100.00% |         659      0.00%    100.00% |        1509      0.00%    100.00% |         189      0.00%    100.00% |           0      0.00%    100.00% |           0      0.00%    100.00% |           0      0.00%    100.00% |           0      0.00%    100.00%
system.ruby.hit_latency_hist::total         117658526                      
system.ruby.l0_cntrl0.Dcache.demand_hits     28303000                       # Number of cache demand hits
system.ruby.l0_cntrl0.Dcache.demand_misses        66752                       # Number of cache demand misses
system.ruby.l0_cntrl0.Dcache.demand_accesses     28369752                       # Number of cache demand accesses
system.ruby.l0_cntrl0.Icache.demand_hits     84275754                       # Number of cache demand hits
system.ruby.l0_cntrl0.Icache.demand_misses         1900                       # Number of cache demand misses
system.ruby.l0_cntrl0.Icache.demand_accesses     84277654                       # Number of cache demand accesses
system.ruby.l0_cntrl0.Zcache.demand_hits            0                       # Number of cache demand hits
system.ruby.l0_cntrl0.Zcache.demand_misses            0                       # Number of cache demand misses
system.ruby.l0_cntrl0.Zcache.demand_accesses            0                       # Number of cache demand accesses
system.ruby.l0_cntrl1.Dcache.demand_hits      1262605                       # Number of cache demand hits
system.ruby.l0_cntrl1.Dcache.demand_misses        81967                       # Number of cache demand misses
system.ruby.l0_cntrl1.Dcache.demand_accesses      1344572                       # Number of cache demand accesses
system.ruby.l0_cntrl1.Icache.demand_hits      3666448                       # Number of cache demand hits
system.ruby.l0_cntrl1.Icache.demand_misses          100                       # Number of cache demand misses
system.ruby.l0_cntrl1.Icache.demand_accesses      3666548                       # Number of cache demand accesses
system.ruby.l0_cntrl1.Zcache.demand_hits            0                       # Number of cache demand hits
system.ruby.l0_cntrl1.Zcache.demand_misses            0                       # Number of cache demand misses
system.ruby.l0_cntrl1.Zcache.demand_accesses            0                       # Number of cache demand accesses
system.ruby.l1_cntrl0.cache.demand_hits          5007                       # Number of cache demand hits
system.ruby.l1_cntrl0.cache.demand_misses        63645                       # Number of cache demand misses
system.ruby.l1_cntrl0.cache.demand_accesses        68652                       # Number of cache demand accesses
system.ruby.l1_cntrl1.cache.demand_hits         49123                       # Number of cache demand hits
system.ruby.l1_cntrl1.cache.demand_misses        32944                       # Number of cache demand misses
system.ruby.l1_cntrl1.cache.demand_accesses        82067                       # Number of cache demand accesses
system.ruby.l2_cntrl0.L2cache.demand_hits        29179                       # Number of cache demand hits
system.ruby.l2_cntrl0.L2cache.demand_misses        67410                       # Number of cache demand misses
system.ruby.l2_cntrl0.L2cache.demand_accesses        96589                       # Number of cache demand accesses
system.ruby.memctrl_clk_domain.clock             1500                       # Clock period in ticks
system.ruby.network.routers0.percent_links_utilized            0                      
system.ruby.network.routers1.percent_links_utilized            0                      
system.ruby.network.routers2.percent_links_utilized     0.144697                      
system.ruby.network.routers2.msg_count.Control::0        63645                      
system.ruby.network.routers2.msg_count.Request_Control::2         3711                      
system.ruby.network.routers2.msg_count.Response_Data::1        71045                      
system.ruby.network.routers2.msg_count.Response_Control::1        58925                      
system.ruby.network.routers2.msg_count.Response_Control::2        63645                      
system.ruby.network.routers2.msg_count.Writeback_Data::0        58345                      
system.ruby.network.routers2.msg_count.Writeback_Control::0          545                      
system.ruby.network.routers2.msg_bytes.Control::0       509160                      
system.ruby.network.routers2.msg_bytes.Request_Control::2        29688                      
system.ruby.network.routers2.msg_bytes.Response_Data::1      5115240                      
system.ruby.network.routers2.msg_bytes.Response_Control::1       471400                      
system.ruby.network.routers2.msg_bytes.Response_Control::2       509160                      
system.ruby.network.routers2.msg_bytes.Writeback_Data::0      4200840                      
system.ruby.network.routers2.msg_bytes.Writeback_Control::0         4360                      
system.ruby.network.routers3.percent_links_utilized     0.045664                      
system.ruby.network.routers3.msg_count.Control::0        32944                      
system.ruby.network.routers3.msg_count.Request_Control::2           25                      
system.ruby.network.routers3.msg_count.Response_Data::1        32959                      
system.ruby.network.routers3.msg_count.Response_Control::1        28771                      
system.ruby.network.routers3.msg_count.Response_Control::2        32917                      
system.ruby.network.routers3.msg_count.Writeback_Data::0          946                      
system.ruby.network.routers3.msg_count.Writeback_Control::0        27804                      
system.ruby.network.routers3.msg_bytes.Control::0       263552                      
system.ruby.network.routers3.msg_bytes.Request_Control::2          200                      
system.ruby.network.routers3.msg_bytes.Response_Data::1      2373048                      
system.ruby.network.routers3.msg_bytes.Response_Control::1       230168                      
system.ruby.network.routers3.msg_bytes.Response_Control::2       263336                      
system.ruby.network.routers3.msg_bytes.Writeback_Data::0        68112                      
system.ruby.network.routers3.msg_bytes.Writeback_Control::0       222432                      
system.ruby.network.routers4.percent_links_utilized     0.251228                      
system.ruby.network.routers4.msg_count.Control::0       160282                      
system.ruby.network.routers4.msg_count.Request_Control::2         3736                      
system.ruby.network.routers4.msg_count.Response_Data::1       160263                      
system.ruby.network.routers4.msg_count.Response_Control::1        87658                      
system.ruby.network.routers4.msg_count.Response_Control::2        96562                      
system.ruby.network.routers4.msg_count.Writeback_Data::0        59291                      
system.ruby.network.routers4.msg_count.Writeback_Control::0        28349                      
system.ruby.network.routers4.msg_bytes.Control::0      1282256                      
system.ruby.network.routers4.msg_bytes.Request_Control::2        29888                      
system.ruby.network.routers4.msg_bytes.Response_Data::1     11538936                      
system.ruby.network.routers4.msg_bytes.Response_Control::1       701264                      
system.ruby.network.routers4.msg_bytes.Response_Control::2       772496                      
system.ruby.network.routers4.msg_bytes.Writeback_Data::0      4268952                      
system.ruby.network.routers4.msg_bytes.Writeback_Control::0       226792                      
system.ruby.network.routers5.percent_links_utilized     0.068017                      
system.ruby.network.routers5.msg_count.Control::0        63693                      
system.ruby.network.routers5.msg_count.Response_Data::1        63693                      
system.ruby.network.routers5.msg_bytes.Control::0       509544                      
system.ruby.network.routers5.msg_bytes.Response_Data::1      4585896                      
system.ruby.network.routers6.percent_links_utilized     0.084934                      
system.ruby.network.routers6.msg_count.Control::0       160282                      
system.ruby.network.routers6.msg_count.Request_Control::2         3736                      
system.ruby.network.routers6.msg_count.Response_Data::1       163980                      
system.ruby.network.routers6.msg_count.Response_Control::1        87677                      
system.ruby.network.routers6.msg_count.Response_Control::2        96562                      
system.ruby.network.routers6.msg_count.Writeback_Data::0        59291                      
system.ruby.network.routers6.msg_count.Writeback_Control::0        28349                      
system.ruby.network.routers6.msg_bytes.Control::0      1282256                      
system.ruby.network.routers6.msg_bytes.Request_Control::2        29888                      
system.ruby.network.routers6.msg_bytes.Response_Data::1     11806560                      
system.ruby.network.routers6.msg_bytes.Response_Control::1       701416                      
system.ruby.network.routers6.msg_bytes.Response_Control::2       772496                      
system.ruby.network.routers6.msg_bytes.Writeback_Data::0      4268952                      
system.ruby.network.routers6.msg_bytes.Writeback_Control::0       226792                      
system.ruby.network.msg_count.Control          480846                      
system.ruby.network.msg_count.Request_Control        11208                      
system.ruby.network.msg_count.Response_Data       491940                      
system.ruby.network.msg_count.Response_Control       552717                      
system.ruby.network.msg_count.Writeback_Data       177873                      
system.ruby.network.msg_count.Writeback_Control        85047                      
system.ruby.network.msg_byte.Control          3846768                      
system.ruby.network.msg_byte.Request_Control        89664                      
system.ruby.network.msg_byte.Response_Data     35419680                      
system.ruby.network.msg_byte.Response_Control      4421736                      
system.ruby.network.msg_byte.Writeback_Data     12806856                      
system.ruby.network.msg_byte.Writeback_Control       680376                      
system.ruby.network.routers0.throttle0.link_utilization            0                      
system.ruby.network.routers0.throttle1.link_utilization            0                      
system.ruby.network.routers1.throttle0.link_utilization            0                      
system.ruby.network.routers1.throttle1.link_utilization            0                      
system.ruby.network.routers2.throttle0.link_utilization     0.135685                      
system.ruby.network.routers2.throttle0.msg_count.Request_Control::2         3711                      
system.ruby.network.routers2.throttle0.msg_count.Response_Data::1        63629                      
system.ruby.network.routers2.throttle0.msg_count.Response_Control::1        58922                      
system.ruby.network.routers2.throttle0.msg_bytes.Request_Control::2        29688                      
system.ruby.network.routers2.throttle0.msg_bytes.Response_Data::1      4581288                      
system.ruby.network.routers2.throttle0.msg_bytes.Response_Control::1       471376                      
system.ruby.network.routers2.throttle1.link_utilization     0.153709                      
system.ruby.network.routers2.throttle1.msg_count.Control::0        63645                      
system.ruby.network.routers2.throttle1.msg_count.Response_Data::1         7416                      
system.ruby.network.routers2.throttle1.msg_count.Response_Control::1            3                      
system.ruby.network.routers2.throttle1.msg_count.Response_Control::2        63645                      
system.ruby.network.routers2.throttle1.msg_count.Writeback_Data::0        58345                      
system.ruby.network.routers2.throttle1.msg_count.Writeback_Control::0          545                      
system.ruby.network.routers2.throttle1.msg_bytes.Control::0       509160                      
system.ruby.network.routers2.throttle1.msg_bytes.Response_Data::1       533952                      
system.ruby.network.routers2.throttle1.msg_bytes.Response_Control::1           24                      
system.ruby.network.routers2.throttle1.msg_bytes.Response_Control::2       509160                      
system.ruby.network.routers2.throttle1.msg_bytes.Writeback_Data::0      4200840                      
system.ruby.network.routers2.throttle1.msg_bytes.Writeback_Control::0         4360                      
system.ruby.network.routers3.throttle0.link_utilization     0.069468                      
system.ruby.network.routers3.throttle0.msg_count.Request_Control::2           25                      
system.ruby.network.routers3.throttle0.msg_count.Response_Data::1        32942                      
system.ruby.network.routers3.throttle0.msg_count.Response_Control::1        28755                      
system.ruby.network.routers3.throttle0.msg_bytes.Request_Control::2          200                      
system.ruby.network.routers3.throttle0.msg_bytes.Response_Data::1      2371824                      
system.ruby.network.routers3.throttle0.msg_bytes.Response_Control::1       230040                      
system.ruby.network.routers3.throttle1.link_utilization     0.021859                      
system.ruby.network.routers3.throttle1.msg_count.Control::0        32944                      
system.ruby.network.routers3.throttle1.msg_count.Response_Data::1           17                      
system.ruby.network.routers3.throttle1.msg_count.Response_Control::1           16                      
system.ruby.network.routers3.throttle1.msg_count.Response_Control::2        32917                      
system.ruby.network.routers3.throttle1.msg_count.Writeback_Data::0          946                      
system.ruby.network.routers3.throttle1.msg_count.Writeback_Control::0        27804                      
system.ruby.network.routers3.throttle1.msg_bytes.Control::0       263552                      
system.ruby.network.routers3.throttle1.msg_bytes.Response_Data::1         1224                      
system.ruby.network.routers3.throttle1.msg_bytes.Response_Control::1          128                      
system.ruby.network.routers3.throttle1.msg_bytes.Response_Control::2       263336                      
system.ruby.network.routers3.throttle1.msg_bytes.Writeback_Data::0        68112                      
system.ruby.network.routers3.throttle1.msg_bytes.Writeback_Control::0       222432                      
system.ruby.network.routers4.throttle0.link_utilization     0.290850                      
system.ruby.network.routers4.throttle0.msg_count.Control::0        96589                      
system.ruby.network.routers4.throttle0.msg_count.Response_Data::1        67409                      
system.ruby.network.routers4.throttle0.msg_count.Response_Control::2        96562                      
system.ruby.network.routers4.throttle0.msg_count.Writeback_Data::0        59291                      
system.ruby.network.routers4.throttle0.msg_count.Writeback_Control::0        28349                      
system.ruby.network.routers4.throttle0.msg_bytes.Control::0       772712                      
system.ruby.network.routers4.throttle0.msg_bytes.Response_Data::1      4853448                      
system.ruby.network.routers4.throttle0.msg_bytes.Response_Control::2       772496                      
system.ruby.network.routers4.throttle0.msg_bytes.Writeback_Data::0      4268952                      
system.ruby.network.routers4.throttle0.msg_bytes.Writeback_Control::0       226792                      
system.ruby.network.routers4.throttle1.link_utilization     0.211607                      
system.ruby.network.routers4.throttle1.msg_count.Control::0        63693                      
system.ruby.network.routers4.throttle1.msg_count.Request_Control::2         3736                      
system.ruby.network.routers4.throttle1.msg_count.Response_Data::1        92854                      
system.ruby.network.routers4.throttle1.msg_count.Response_Control::1        87658                      
system.ruby.network.routers4.throttle1.msg_bytes.Control::0       509544                      
system.ruby.network.routers4.throttle1.msg_bytes.Request_Control::2        29888                      
system.ruby.network.routers4.throttle1.msg_bytes.Response_Data::1      6685488                      
system.ruby.network.routers4.throttle1.msg_bytes.Response_Control::1       701264                      
system.ruby.network.routers5.throttle0.link_utilization     0.013603                      
system.ruby.network.routers5.throttle0.msg_count.Control::0        63693                      
system.ruby.network.routers5.throttle0.msg_bytes.Control::0       509544                      
system.ruby.network.routers5.throttle1.link_utilization     0.122431                      
system.ruby.network.routers5.throttle1.msg_count.Response_Data::1        63693                      
system.ruby.network.routers5.throttle1.msg_bytes.Response_Data::1      4585896                      
system.ruby.network.routers6.throttle0.link_utilization            0                      
system.ruby.network.routers6.throttle1.link_utilization            0                      
system.ruby.network.routers6.throttle2.link_utilization     0.135685                      
system.ruby.network.routers6.throttle2.msg_count.Request_Control::2         3711                      
system.ruby.network.routers6.throttle2.msg_count.Response_Data::1        63629                      
system.ruby.network.routers6.throttle2.msg_count.Response_Control::1        58922                      
system.ruby.network.routers6.throttle2.msg_bytes.Request_Control::2        29688                      
system.ruby.network.routers6.throttle2.msg_bytes.Response_Data::1      4581288                      
system.ruby.network.routers6.throttle2.msg_bytes.Response_Control::1       471376                      
system.ruby.network.routers6.throttle3.link_utilization     0.069468                      
system.ruby.network.routers6.throttle3.msg_count.Request_Control::2           25                      
system.ruby.network.routers6.throttle3.msg_count.Response_Data::1        32942                      
system.ruby.network.routers6.throttle3.msg_count.Response_Control::1        28755                      
system.ruby.network.routers6.throttle3.msg_bytes.Request_Control::2          200                      
system.ruby.network.routers6.throttle3.msg_bytes.Response_Data::1      2371824                      
system.ruby.network.routers6.throttle3.msg_bytes.Response_Control::1       230040                      
system.ruby.network.routers6.throttle4.link_utilization     0.290850                      
system.ruby.network.routers6.throttle4.msg_count.Control::0        96589                      
system.ruby.network.routers6.throttle4.msg_count.Response_Data::1        67409                      
system.ruby.network.routers6.throttle4.msg_count.Response_Control::2        96562                      
system.ruby.network.routers6.throttle4.msg_count.Writeback_Data::0        59291                      
system.ruby.network.routers6.throttle4.msg_count.Writeback_Control::0        28349                      
system.ruby.network.routers6.throttle4.msg_bytes.Control::0       772712                      
system.ruby.network.routers6.throttle4.msg_bytes.Response_Data::1      4853448                      
system.ruby.network.routers6.throttle4.msg_bytes.Response_Control::2       772496                      
system.ruby.network.routers6.throttle4.msg_bytes.Writeback_Data::0      4268952                      
system.ruby.network.routers6.throttle4.msg_bytes.Writeback_Control::0       226792                      
system.ruby.network.routers6.throttle5.link_utilization     0.013603                      
system.ruby.network.routers6.throttle5.msg_count.Control::0        63693                      
system.ruby.network.routers6.throttle5.msg_bytes.Control::0       509544                      
system.ruby.delayVCHist.vnet_0::bucket_size            1                       # delay histogram for vnet_0
system.ruby.delayVCHist.vnet_0::max_bucket            9                       # delay histogram for vnet_0
system.ruby.delayVCHist.vnet_0::samples        280791                       # delay histogram for vnet_0
system.ruby.delayVCHist.vnet_0::mean         1.689484                       # delay histogram for vnet_0
system.ruby.delayVCHist.vnet_0::stdev        3.265012                       # delay histogram for vnet_0
system.ruby.delayVCHist.vnet_0           |      221471     78.87%     78.87% |           0      0.00%     78.87% |          27      0.01%     78.88% |           0      0.00%     78.88% |           1      0.00%     78.88% |           0      0.00%     78.88% |           1      0.00%     78.88% |           0      0.00%     78.88% |       59291     21.12%    100.00% |           0      0.00%    100.00% # delay histogram for vnet_0
system.ruby.delayVCHist.vnet_0::total          280791                       # delay histogram for vnet_0
system.ruby.delayVCHist.vnet_1::bucket_size            1                       # delay histogram for vnet_1
system.ruby.delayVCHist.vnet_1::max_bucket            9                       # delay histogram for vnet_1
system.ruby.delayVCHist.vnet_1::samples        402376                       # delay histogram for vnet_1
system.ruby.delayVCHist.vnet_1::mean         0.073881                       # delay histogram for vnet_1
system.ruby.delayVCHist.vnet_1::stdev        0.765240                       # delay histogram for vnet_1
system.ruby.delayVCHist.vnet_1           |      398660     99.08%     99.08% |           0      0.00%     99.08% |           0      0.00%     99.08% |           0      0.00%     99.08% |           0      0.00%     99.08% |           0      0.00%     99.08% |           0      0.00%     99.08% |           0      0.00%     99.08% |        3716      0.92%    100.00% |           0      0.00%    100.00% # delay histogram for vnet_1
system.ruby.delayVCHist.vnet_1::total          402376                       # delay histogram for vnet_1
system.ruby.delayVCHist.vnet_2::bucket_size            1                       # delay histogram for vnet_2
system.ruby.delayVCHist.vnet_2::max_bucket            9                       # delay histogram for vnet_2
system.ruby.delayVCHist.vnet_2::samples          5067                       # delay histogram for vnet_2
system.ruby.delayVCHist.vnet_2::mean         0.275311                       # delay histogram for vnet_2
system.ruby.delayVCHist.vnet_2::stdev        1.140620                       # delay histogram for vnet_2
system.ruby.delayVCHist.vnet_2           |        4788     94.49%     94.49% |           0      0.00%     94.49% |           0      0.00%     94.49% |           0      0.00%     94.49% |           0      0.00%     94.49% |         279      5.51%    100.00% |           0      0.00%    100.00% |           0      0.00%    100.00% |           0      0.00%    100.00% |           0      0.00%    100.00% # delay histogram for vnet_2
system.ruby.delayVCHist.vnet_2::total            5067                       # delay histogram for vnet_2
system.ruby.LD.latency_hist::bucket_size           32                      
system.ruby.LD.latency_hist::max_bucket           319                      
system.ruby.LD.latency_hist::samples         16829602                      
system.ruby.LD.latency_hist::mean            1.054371                      
system.ruby.LD.latency_hist::gmean           1.010982                      
system.ruby.LD.latency_hist::stdev           1.072238                      
system.ruby.LD.latency_hist              |    16829043    100.00%    100.00% |         333      0.00%    100.00% |           0      0.00%    100.00% |         115      0.00%    100.00% |          65      0.00%    100.00% |          46      0.00%    100.00% |           0      0.00%    100.00% |           0      0.00%    100.00% |           0      0.00%    100.00% |           0      0.00%    100.00%
system.ruby.LD.latency_hist::total           16829602                      
system.ruby.LD.hit_latency_hist::bucket_size           32                      
system.ruby.LD.hit_latency_hist::max_bucket          319                      
system.ruby.LD.hit_latency_hist::samples     16829602                      
system.ruby.LD.hit_latency_hist::mean        1.054371                      
system.ruby.LD.hit_latency_hist::gmean       1.010982                      
system.ruby.LD.hit_latency_hist::stdev       1.072238                      
system.ruby.LD.hit_latency_hist          |    16829043    100.00%    100.00% |         333      0.00%    100.00% |           0      0.00%    100.00% |         115      0.00%    100.00% |          65      0.00%    100.00% |          46      0.00%    100.00% |           0      0.00%    100.00% |           0      0.00%    100.00% |           0      0.00%    100.00% |           0      0.00%    100.00%
system.ruby.LD.hit_latency_hist::total       16829602                      
system.ruby.ST.latency_hist::bucket_size          128                      
system.ruby.ST.latency_hist::max_bucket          1279                      
system.ruby.ST.latency_hist::samples          8793709                      
system.ruby.ST.latency_hist::mean            1.995283                      
system.ruby.ST.latency_hist::gmean           1.035606                      
system.ruby.ST.latency_hist::stdev          13.815830                      
system.ruby.ST.latency_hist              |     8778572     99.83%     99.83% |       12703      0.14%     99.97% |          91      0.00%     99.97% |         659      0.01%     99.98% |        1501      0.02%    100.00% |         183      0.00%    100.00% |           0      0.00%    100.00% |           0      0.00%    100.00% |           0      0.00%    100.00% |           0      0.00%    100.00%
system.ruby.ST.latency_hist::total            8793709                      
system.ruby.ST.hit_latency_hist::bucket_size          128                      
system.ruby.ST.hit_latency_hist::max_bucket         1279                      
system.ruby.ST.hit_latency_hist::samples      8793709                      
system.ruby.ST.hit_latency_hist::mean        1.995283                      
system.ruby.ST.hit_latency_hist::gmean       1.035606                      
system.ruby.ST.hit_latency_hist::stdev      13.815830                      
system.ruby.ST.hit_latency_hist          |     8778572     99.83%     99.83% |       12703      0.14%     99.97% |          91      0.00%     99.97% |         659      0.01%     99.98% |        1501      0.02%    100.00% |         183      0.00%    100.00% |           0      0.00%    100.00% |           0      0.00%    100.00% |           0      0.00%    100.00% |           0      0.00%    100.00%
system.ruby.ST.hit_latency_hist::total        8793709                      
system.ruby.IFETCH.latency_hist::bucket_size          128                      
system.ruby.IFETCH.latency_hist::max_bucket         1279                      
system.ruby.IFETCH.latency_hist::samples     87944202                      
system.ruby.IFETCH.latency_hist::mean        1.001871                      
system.ruby.IFETCH.latency_hist::gmean       1.000089                      
system.ruby.IFETCH.latency_hist::stdev       0.518901                      
system.ruby.IFETCH.latency_hist          |    87943929    100.00%    100.00% |         258      0.00%    100.00% |           1      0.00%    100.00% |           0      0.00%    100.00% |           8      0.00%    100.00% |           6      0.00%    100.00% |           0      0.00%    100.00% |           0      0.00%    100.00% |           0      0.00%    100.00% |           0      0.00%    100.00%
system.ruby.IFETCH.latency_hist::total       87944202                      
system.ruby.IFETCH.hit_latency_hist::bucket_size          128                      
system.ruby.IFETCH.hit_latency_hist::max_bucket         1279                      
system.ruby.IFETCH.hit_latency_hist::samples     87944202                      
system.ruby.IFETCH.hit_latency_hist::mean     1.001871                      
system.ruby.IFETCH.hit_latency_hist::gmean     1.000089                      
system.ruby.IFETCH.hit_latency_hist::stdev     0.518901                      
system.ruby.IFETCH.hit_latency_hist      |    87943929    100.00%    100.00% |         258      0.00%    100.00% |           1      0.00%    100.00% |           0      0.00%    100.00% |           8      0.00%    100.00% |           6      0.00%    100.00% |           0      0.00%    100.00% |           0      0.00%    100.00% |           0      0.00%    100.00% |           0      0.00%    100.00%
system.ruby.IFETCH.hit_latency_hist::total     87944202                      
system.ruby.RMW_Read.latency_hist::bucket_size            4                      
system.ruby.RMW_Read.latency_hist::max_bucket           39                      
system.ruby.RMW_Read.latency_hist::samples          395                      
system.ruby.RMW_Read.latency_hist::mean      1.529114                      
system.ruby.RMW_Read.latency_hist::gmean     1.072733                      
system.ruby.RMW_Read.latency_hist::stdev     3.681624                      
system.ruby.RMW_Read.latency_hist        |         386     97.72%     97.72% |           1      0.25%     97.97% |           0      0.00%     97.97% |           0      0.00%     97.97% |           0      0.00%     97.97% |           3      0.76%     98.73% |           0      0.00%     98.73% |           3      0.76%     99.49% |           2      0.51%    100.00% |           0      0.00%    100.00%
system.ruby.RMW_Read.latency_hist::total          395                      
system.ruby.RMW_Read.hit_latency_hist::bucket_size            4                      
system.ruby.RMW_Read.hit_latency_hist::max_bucket           39                      
system.ruby.RMW_Read.hit_latency_hist::samples          395                      
system.ruby.RMW_Read.hit_latency_hist::mean     1.529114                      
system.ruby.RMW_Read.hit_latency_hist::gmean     1.072733                      
system.ruby.RMW_Read.hit_latency_hist::stdev     3.681624                      
system.ruby.RMW_Read.hit_latency_hist    |         386     97.72%     97.72% |           1      0.25%     97.97% |           0      0.00%     97.97% |           0      0.00%     97.97% |           0      0.00%     97.97% |           3      0.76%     98.73% |           0      0.00%     98.73% |           3      0.76%     99.49% |           2      0.51%    100.00% |           0      0.00%    100.00%
system.ruby.RMW_Read.hit_latency_hist::total          395                      
system.ruby.Locked_RMW_Read.latency_hist::bucket_size           32                      
system.ruby.Locked_RMW_Read.latency_hist::max_bucket          319                      
system.ruby.Locked_RMW_Read.latency_hist::samples      2045309                      
system.ruby.Locked_RMW_Read.latency_hist::mean     1.000391                      
system.ruby.Locked_RMW_Read.latency_hist::gmean     1.000039                      
system.ruby.Locked_RMW_Read.latency_hist::stdev     0.171108                      
system.ruby.Locked_RMW_Read.latency_hist |     2045307    100.00%    100.00% |           0      0.00%    100.00% |           0      0.00%    100.00% |           0      0.00%    100.00% |           1      0.00%    100.00% |           1      0.00%    100.00% |           0      0.00%    100.00% |           0      0.00%    100.00% |           0      0.00%    100.00% |           0      0.00%    100.00%
system.ruby.Locked_RMW_Read.latency_hist::total      2045309                      
system.ruby.Locked_RMW_Read.hit_latency_hist::bucket_size           32                      
system.ruby.Locked_RMW_Read.hit_latency_hist::max_bucket          319                      
system.ruby.Locked_RMW_Read.hit_latency_hist::samples      2045309                      
system.ruby.Locked_RMW_Read.hit_latency_hist::mean     1.000391                      
system.ruby.Locked_RMW_Read.hit_latency_hist::gmean     1.000039                      
system.ruby.Locked_RMW_Read.hit_latency_hist::stdev     0.171108                      
system.ruby.Locked_RMW_Read.hit_latency_hist |     2045307    100.00%    100.00% |           0      0.00%    100.00% |           0      0.00%    100.00% |           0      0.00%    100.00% |           1      0.00%    100.00% |           1      0.00%    100.00% |           0      0.00%    100.00% |           0      0.00%    100.00% |           0      0.00%    100.00% |           0      0.00%    100.00%
system.ruby.Locked_RMW_Read.hit_latency_hist::total      2045309                      
system.ruby.Locked_RMW_Write.latency_hist::bucket_size            1                      
system.ruby.Locked_RMW_Write.latency_hist::max_bucket            9                      
system.ruby.Locked_RMW_Write.latency_hist::samples      2045309                      
system.ruby.Locked_RMW_Write.latency_hist::mean            1                      
system.ruby.Locked_RMW_Write.latency_hist::gmean            1                      
[...]
system.ruby.Directory_Controller.IM.Memory_Data        63693      0.00%      0.00%
system.ruby.L0Cache_Controller.Load      |    15509854     92.16%     92.16% |     1319748      7.84%    100.00%
system.ruby.L0Cache_Controller.Load::total     16829602                      
system.ruby.L0Cache_Controller.Ifetch    |    84277654     95.83%     95.83% |     3666548      4.17%    100.00%
system.ruby.L0Cache_Controller.Ifetch::total     87944202                      
system.ruby.L0Cache_Controller.Store     |    12859898     99.81%     99.81% |       24824      0.19%    100.00%
system.ruby.L0Cache_Controller.Store::total     12884722                      
system.ruby.L0Cache_Controller.Inv       |        1030     77.39%     77.39% |         301     22.61%    100.00%
system.ruby.L0Cache_Controller.Inv::total         1331                      
system.ruby.L0Cache_Controller.L0_Replacement |       66812     45.10%     45.10% |       81329     54.90%    100.00%
system.ruby.L0Cache_Controller.L0_Replacement::total       148141                      
system.ruby.L0Cache_Controller.Data      |          25      0.66%      0.66% |        3755     99.34%    100.00%
system.ruby.L0Cache_Controller.Data::total         3780                      
system.ruby.L0Cache_Controller.Data_Exclusive |       68627     46.70%     46.70% |       78312     53.30%    100.00%
system.ruby.L0Cache_Controller.Data_Exclusive::total       146939                      
system.ruby.L0Cache_Controller.NP.Load   |        2975      3.54%      3.54% |       81146     96.46%    100.00%
system.ruby.L0Cache_Controller.NP.Load::total        84121                      
system.ruby.L0Cache_Controller.NP.Ifetch |        1900     95.00%     95.00% |         100      5.00%    100.00%
system.ruby.L0Cache_Controller.NP.Ifetch::total         2000                      
system.ruby.L0Cache_Controller.NP.Store  |       63761     98.73%     98.73% |         820      1.27%    100.00%
system.ruby.L0Cache_Controller.NP.Store::total        64581                      
system.ruby.L0Cache_Controller.NP.Inv    |           0      0.00%      0.00% |          80    100.00%    100.00%
system.ruby.L0Cache_Controller.NP.Inv::total           80                      
system.ruby.L0Cache_Controller.S.Load    |      612457     90.49%     90.49% |       64336      9.51%    100.00%
system.ruby.L0Cache_Controller.S.Load::total       676793                      
system.ruby.L0Cache_Controller.S.Ifetch  |          22     13.33%     13.33% |         143     86.67%    100.00%
system.ruby.L0Cache_Controller.S.Ifetch::total          165                      
system.ruby.L0Cache_Controller.S.Store   |          16     94.12%     94.12% |           1      5.88%    100.00%
system.ruby.L0Cache_Controller.S.Store::total           17                      
system.ruby.L0Cache_Controller.S.Inv     |           1      4.17%      4.17% |          23     95.83%    100.00%
system.ruby.L0Cache_Controller.S.Inv::total           24                      
system.ruby.L0Cache_Controller.S.L0_Replacement |           6      0.18%      0.18% |        3260     99.82%    100.00%
system.ruby.L0Cache_Controller.S.L0_Replacement::total         3266                      
system.ruby.L0Cache_Controller.E.Load    |     1968117     62.88%     62.88% |     1161852     37.12%    100.00%
system.ruby.L0Cache_Controller.E.Load::total      3129969                      
system.ruby.L0Cache_Controller.E.Ifetch  |    84275732     95.83%     95.83% |     3666305      4.17%    100.00%
system.ruby.L0Cache_Controller.E.Ifetch::total     87942037                      
system.ruby.L0Cache_Controller.E.Store   |        2206     98.66%     98.66% |          30      1.34%    100.00%
system.ruby.L0Cache_Controller.E.Store::total         2236                      
system.ruby.L0Cache_Controller.E.Inv     |         704     79.10%     79.10% |         186     20.90%    100.00%
system.ruby.L0Cache_Controller.E.Inv::total          890                      
system.ruby.L0Cache_Controller.E.L0_Replacement |        1448      1.84%      1.84% |       77258     98.16%    100.00%
system.ruby.L0Cache_Controller.E.L0_Replacement::total        78706                      
system.ruby.L0Cache_Controller.M.Load    |    12926305     99.90%     99.90% |       12414      0.10%    100.00%
system.ruby.L0Cache_Controller.M.Load::total     12938719                      
system.ruby.L0Cache_Controller.M.Store   |    12793915     99.81%     99.81% |       23973      0.19%    100.00%
system.ruby.L0Cache_Controller.M.Store::total     12817888                      
system.ruby.L0Cache_Controller.M.Inv     |         325     96.44%     96.44% |          12      3.56%    100.00%
system.ruby.L0Cache_Controller.M.Inv::total          337                      
system.ruby.L0Cache_Controller.M.L0_Replacement |       65358     98.77%     98.77% |         811      1.23%    100.00%
system.ruby.L0Cache_Controller.M.L0_Replacement::total        66169                      
system.ruby.L0Cache_Controller.IS.Data   |          25      0.66%      0.66% |        3755     99.34%    100.00%
system.ruby.L0Cache_Controller.IS.Data::total         3780                      
system.ruby.L0Cache_Controller.IS.Data_Exclusive |        4850      5.89%      5.89% |       77491     94.11%    100.00%
system.ruby.L0Cache_Controller.IS.Data_Exclusive::total        82341                      
system.ruby.L0Cache_Controller.IM.Data_Exclusive |       63761     98.73%     98.73% |         820      1.27%    100.00%
system.ruby.L0Cache_Controller.IM.Data_Exclusive::total        64581                      
system.ruby.L0Cache_Controller.SM.Data_Exclusive |          16     94.12%     94.12% |           1      5.88%    100.00%
system.ruby.L0Cache_Controller.SM.Data_Exclusive::total           17                      
system.ruby.L1Cache_Controller.Load      |        4875      5.66%      5.66% |       81246     94.34%    100.00%
system.ruby.L1Cache_Controller.Load::total        86121                      
system.ruby.L1Cache_Controller.Store     |       63777     98.73%     98.73% |         821      1.27%    100.00%
system.ruby.L1Cache_Controller.Store::total        64598                      
system.ruby.L1Cache_Controller.WriteBack |       66806     46.11%     46.11% |       78069     53.89%    100.00%
system.ruby.L1Cache_Controller.WriteBack::total       144875                      
system.ruby.L1Cache_Controller.L0_DataAck |         325     96.44%     96.44% |          12      3.56%    100.00%
system.ruby.L1Cache_Controller.L0_DataAck::total          337                      
system.ruby.L1Cache_Controller.Inv       |           3     15.79%     15.79% |          16     84.21%    100.00%
system.ruby.L1Cache_Controller.Inv::total           19                      
system.ruby.L1Cache_Controller.L0_Invalidate_Own |        1534     72.91%     72.91% |         570     27.09%    100.00%
system.ruby.L1Cache_Controller.L0_Invalidate_Own::total         2104                      
system.ruby.L1Cache_Controller.L0_Invalidate_Else |         526     94.27%     94.27% |          32      5.73%    100.00%
system.ruby.L1Cache_Controller.L0_Invalidate_Else::total          558                      
system.ruby.L1Cache_Controller.L1_Replacement |       59530     67.36%     67.36% |       28846     32.64%    100.00%
system.ruby.L1Cache_Controller.L1_Replacement::total        88376                      
system.ruby.L1Cache_Controller.Fwd_GETX  |           0      0.00%      0.00% |           1    100.00%    100.00%
system.ruby.L1Cache_Controller.Fwd_GETX::total            1                      
system.ruby.L1Cache_Controller.Fwd_GETS  |        3708     99.78%     99.78% |           8      0.22%    100.00%
system.ruby.L1Cache_Controller.Fwd_GETS::total         3716                      
system.ruby.L1Cache_Controller.Data      |           0      0.00%      0.00% |           1    100.00%    100.00%
system.ruby.L1Cache_Controller.Data::total            1                      
system.ruby.L1Cache_Controller.Data_Exclusive |        2033      6.68%      6.68% |       28419     93.32%    100.00%
system.ruby.L1Cache_Controller.Data_Exclusive::total        30452                      
system.ruby.L1Cache_Controller.DataS_fromL1 |           8      0.22%      0.22% |        3708     99.78%    100.00%
system.ruby.L1Cache_Controller.DataS_fromL1::total         3716                      
system.ruby.L1Cache_Controller.Data_all_Acks |       61588     98.70%     98.70% |         814      1.30%    100.00%
system.ruby.L1Cache_Controller.Data_all_Acks::total        62402                      
system.ruby.L1Cache_Controller.L0_Ack    |         705     70.93%     70.93% |         289     29.07%    100.00%
system.ruby.L1Cache_Controller.L0_Ack::total          994                      
system.ruby.L1Cache_Controller.Ack       |          16     88.89%     88.89% |           2     11.11%    100.00%
system.ruby.L1Cache_Controller.Ack::total           18                      
system.ruby.L1Cache_Controller.Ack_all   |          16     84.21%     84.21% |           3     15.79%    100.00%
system.ruby.L1Cache_Controller.Ack_all::total           19                      
system.ruby.L1Cache_Controller.WB_Ack    |       58890     67.20%     67.20% |       28750     32.80%    100.00%
system.ruby.L1Cache_Controller.WB_Ack::total        87640                      
system.ruby.L1Cache_Controller.NP.Load   |        2041      5.97%      5.97% |       32154     94.03%    100.00%
system.ruby.L1Cache_Controller.NP.Load::total        34195                      
system.ruby.L1Cache_Controller.NP.Store  |       61588     98.74%     98.74% |         788      1.26%    100.00%
system.ruby.L1Cache_Controller.NP.Store::total        62376                      
system.ruby.L1Cache_Controller.NP.Inv    |           0      0.00%      0.00% |           4    100.00%    100.00%
system.ruby.L1Cache_Controller.NP.Inv::total            4                      
system.ruby.L1Cache_Controller.S.Load    |           1      4.76%      4.76% |          20     95.24%    100.00%
system.ruby.L1Cache_Controller.S.Load::total           21                      
system.ruby.L1Cache_Controller.S.Store   |          16     88.89%     88.89% |           2     11.11%    100.00%
system.ruby.L1Cache_Controller.S.Store::total           18                      
system.ruby.L1Cache_Controller.S.L0_Invalidate_Own |           0      0.00%      0.00% |          96    100.00%    100.00%
system.ruby.L1Cache_Controller.S.L0_Invalidate_Own::total           96                      
system.ruby.L1Cache_Controller.S.L0_Invalidate_Else |           1     12.50%     12.50% |           7     87.50%    100.00%
system.ruby.L1Cache_Controller.S.L0_Invalidate_Else::total            8                      
system.ruby.L1Cache_Controller.SS.Load   |          16    100.00%    100.00% |           0      0.00%    100.00%
system.ruby.L1Cache_Controller.SS.Load::total           16                      
system.ruby.L1Cache_Controller.SS.Inv    |           3     20.00%     20.00% |          12     80.00%    100.00%
system.ruby.L1Cache_Controller.SS.Inv::total           15                      
system.ruby.L1Cache_Controller.SS.L1_Replacement |         640     86.96%     86.96% |          96     13.04%    100.00%
system.ruby.L1Cache_Controller.SS.L1_Replacement::total          736                      
system.ruby.L1Cache_Controller.E.WriteBack |         884      3.03%      3.03% |       28303     96.97%    100.00%
system.ruby.L1Cache_Controller.E.WriteBack::total        29187                      
system.ruby.L1Cache_Controller.E.L0_Invalidate_Own |         675     88.12%     88.12% |          91     11.88%    100.00%
system.ruby.L1Cache_Controller.E.L0_Invalidate_Own::total          766                      
system.ruby.L1Cache_Controller.E.L0_Invalidate_Else |          13     72.22%     72.22% |           5     27.78%    100.00%
system.ruby.L1Cache_Controller.E.L0_Invalidate_Else::total           18                      
system.ruby.L1Cache_Controller.EE.L1_Replacement |         645     88.24%     88.24% |          86     11.76%    100.00%
system.ruby.L1Cache_Controller.EE.L1_Replacement::total          731                      
system.ruby.L1Cache_Controller.EE.Fwd_GETS |          13     76.47%     76.47% |           4     23.53%    100.00%
system.ruby.L1Cache_Controller.EE.Fwd_GETS::total           17                      
system.ruby.L1Cache_Controller.M.WriteBack |       65922     56.98%     56.98% |       49766     43.02%    100.00%
system.ruby.L1Cache_Controller.M.WriteBack::total       115688                      
system.ruby.L1Cache_Controller.M.L0_Invalidate_Own |          92     48.42%     48.42% |          98     51.58%    100.00%
system.ruby.L1Cache_Controller.M.L0_Invalidate_Own::total          190                      
system.ruby.L1Cache_Controller.M.L0_Invalidate_Else |         249     98.42%     98.42% |           4      1.58%    100.00%
system.ruby.L1Cache_Controller.M.L0_Invalidate_Else::total          253                      
system.ruby.L1Cache_Controller.MM.Load   |        2817      5.43%      5.43% |       49072     94.57%    100.00%
system.ruby.L1Cache_Controller.MM.Load::total        51889                      
system.ruby.L1Cache_Controller.MM.Store  |        2173     98.59%     98.59% |          31      1.41%    100.00%
system.ruby.L1Cache_Controller.MM.Store::total         2204                      
system.ruby.L1Cache_Controller.MM.L1_Replacement |       58245     67.02%     67.02% |       28664     32.98%    100.00%
system.ruby.L1Cache_Controller.MM.L1_Replacement::total        86909                      
system.ruby.L1Cache_Controller.MM.Fwd_GETX |           0      0.00%      0.00% |           1    100.00%    100.00%
system.ruby.L1Cache_Controller.MM.Fwd_GETX::total            1                      
system.ruby.L1Cache_Controller.MM.Fwd_GETS |        3695     99.89%     99.89% |           4      0.11%    100.00%
system.ruby.L1Cache_Controller.MM.Fwd_GETS::total         3699                      
system.ruby.L1Cache_Controller.IS.Data_Exclusive |        2033      6.68%      6.68% |       28419     93.32%    100.00%
system.ruby.L1Cache_Controller.IS.Data_Exclusive::total        30452                      
system.ruby.L1Cache_Controller.IS.DataS_fromL1 |           8      0.22%      0.22% |        3708     99.78%    100.00%
system.ruby.L1Cache_Controller.IS.DataS_fromL1::total         3716                      
system.ruby.L1Cache_Controller.IS.Data_all_Acks |           0      0.00%      0.00% |          27    100.00%    100.00%
system.ruby.L1Cache_Controller.IS.Data_all_Acks::total           27                      
system.ruby.L1Cache_Controller.IM.Data   |           0      0.00%      0.00% |           1    100.00%    100.00%
system.ruby.L1Cache_Controller.IM.Data::total            1                      
system.ruby.L1Cache_Controller.IM.Data_all_Acks |       61588     98.74%     98.74% |         787      1.26%    100.00%
system.ruby.L1Cache_Controller.IM.Data_all_Acks::total        62375                      
system.ruby.L1Cache_Controller.SM.Ack    |          16     88.89%     88.89% |           2     11.11%    100.00%
system.ruby.L1Cache_Controller.SM.Ack::total           18                      
system.ruby.L1Cache_Controller.SM.Ack_all |          16     84.21%     84.21% |           3     15.79%    100.00%
system.ruby.L1Cache_Controller.SM.Ack_all::total           19                      
system.ruby.L1Cache_Controller.M_I.WB_Ack |       58890     67.20%     67.20% |       28750     32.80%    100.00%
system.ruby.L1Cache_Controller.M_I.WB_Ack::total        87640                      
system.ruby.L1Cache_Controller.S_IL0.L0_Invalidate_Own |           0      0.00%      0.00% |          96    100.00%    100.00%
system.ruby.L1Cache_Controller.S_IL0.L0_Invalidate_Own::total           96                      
system.ruby.L1Cache_Controller.S_IL0.L0_Invalidate_Else |           1     12.50%     12.50% |           7     87.50%    100.00%
system.ruby.L1Cache_Controller.S_IL0.L0_Invalidate_Else::total            8                      
system.ruby.L1Cache_Controller.S_IL0.L0_Ack |           1      0.96%      0.96% |         103     99.04%    100.00%
system.ruby.L1Cache_Controller.S_IL0.L0_Ack::total          104                      
system.ruby.L1Cache_Controller.E_IL0.L0_DataAck |          30     83.33%     83.33% |           6     16.67%    100.00%
system.ruby.L1Cache_Controller.E_IL0.L0_DataAck::total           36                      
system.ruby.L1Cache_Controller.E_IL0.L0_Invalidate_Own |         675     88.12%     88.12% |          91     11.88%    100.00%
system.ruby.L1Cache_Controller.E_IL0.L0_Invalidate_Own::total          766                      
system.ruby.L1Cache_Controller.E_IL0.L0_Invalidate_Else |          13     72.22%     72.22% |           5     27.78%    100.00%
system.ruby.L1Cache_Controller.E_IL0.L0_Invalidate_Else::total           18                      
system.ruby.L1Cache_Controller.E_IL0.L0_Ack |         658     87.97%     87.97% |          90     12.03%    100.00%
system.ruby.L1Cache_Controller.E_IL0.L0_Ack::total          748                      
system.ruby.L1Cache_Controller.M_IL0.L0_DataAck |         295     98.01%     98.01% |           6      1.99%    100.00%
system.ruby.L1Cache_Controller.M_IL0.L0_DataAck::total          301                      
system.ruby.L1Cache_Controller.M_IL0.L0_Invalidate_Own |          92     48.42%     48.42% |          98     51.58%    100.00%
system.ruby.L1Cache_Controller.M_IL0.L0_Invalidate_Own::total          190                      
system.ruby.L1Cache_Controller.M_IL0.L0_Invalidate_Else |         249     98.42%     98.42% |           4      1.58%    100.00%
system.ruby.L1Cache_Controller.M_IL0.L0_Invalidate_Else::total          253                      
system.ruby.L1Cache_Controller.M_IL0.L0_Ack |          46     32.39%     32.39% |          96     67.61%    100.00%
system.ruby.L1Cache_Controller.M_IL0.L0_Ack::total          142                      
system.ruby.L2Cache_Controller.L1_GETS          34195      0.00%      0.00%
system.ruby.L2Cache_Controller.L1_GETX          62376      0.00%      0.00%
system.ruby.L2Cache_Controller.L1_UPGRADE           18      0.00%      0.00%
system.ruby.L2Cache_Controller.L1_PUTX          87640      0.00%      0.00%
system.ruby.L2Cache_Controller.Mem_Data         63693      0.00%      0.00%
system.ruby.L2Cache_Controller.WB_Data           3716      0.00%      0.00%
system.ruby.L2Cache_Controller.Unblock           3716      0.00%      0.00%
system.ruby.L2Cache_Controller.Exclusive_Unblock        92846      0.00%      0.00%
system.ruby.L2Cache_Controller.NP.L1_GETS         1414      0.00%      0.00%
system.ruby.L2Cache_Controller.NP.L1_GETX        62279      0.00%      0.00%
system.ruby.L2Cache_Controller.SS.L1_GETS           27      0.00%      0.00%
system.ruby.L2Cache_Controller.SS.L1_GETX            1      0.00%      0.00%
system.ruby.L2Cache_Controller.SS.L1_UPGRADE           18      0.00%      0.00%
system.ruby.L2Cache_Controller.M.L1_GETS        29038      0.00%      0.00%
system.ruby.L2Cache_Controller.M.L1_GETX           95      0.00%      0.00%
system.ruby.L2Cache_Controller.MT.L1_GETS         3716      0.00%      0.00%
system.ruby.L2Cache_Controller.MT.L1_GETX            1      0.00%      0.00%
system.ruby.L2Cache_Controller.MT.L1_PUTX        87640      0.00%      0.00%
system.ruby.L2Cache_Controller.ISS.Mem_Data         1414      0.00%      0.00%
system.ruby.L2Cache_Controller.IM.Mem_Data        62279      0.00%      0.00%
system.ruby.L2Cache_Controller.SS_MB.Exclusive_Unblock           19      0.00%      0.00%
system.ruby.L2Cache_Controller.MT_MB.Exclusive_Unblock        92827      0.00%      0.00%
system.ruby.L2Cache_Controller.MT_IIB.WB_Data         3716      0.00%      0.00%
system.ruby.L2Cache_Controller.MT_SB.Unblock         3716      0.00%      0.00%

---------- End Simulation Statistics   ----------
