
---------- Begin Simulation Statistics ----------
sim_seconds                                  5.676714                       # Number of seconds simulated
sim_ticks                                5676714140000                       # Number of ticks simulated
final_tick                               5676714140000                       # Number of ticks from beginning of simulation (restored from checkpoints and never reset)
sim_freq                                 1000000000000                       # Frequency of simulated ticks
host_inst_rate                                 125346                       # Simulator instruction rate (inst/s)
host_op_rate                                   350316                       # Simulator op (including micro ops) rate (op/s)
host_tick_rate                              208978965                       # Simulator tick rate (ticks/s)
host_mem_usage                                4467320                       # Number of bytes of host memory used
host_seconds                                 27164.05                       # Real time elapsed on the host
sim_insts                                  3404901044                       # Number of instructions simulated
sim_ops                                    9515994216                       # Number of ops (including micro ops) simulated
system.voltage_domain.voltage                       1                       # Voltage in Volts
system.clk_domain.clock                          1000                       # Clock period in ticks
system.mem_ctrls.bytes_read::ruby.dir_cntrl0    588191616                       # Number of bytes read from this memory
system.mem_ctrls.bytes_read::total          588191616                       # Number of bytes read from this memory
system.mem_ctrls.bytes_written::ruby.dir_cntrl0    240942144                       # Number of bytes written to this memory
system.mem_ctrls.bytes_written::total       240942144                       # Number of bytes written to this memory
system.mem_ctrls.num_reads::ruby.dir_cntrl0      9190494                       # Number of read requests responded to by this memory
system.mem_ctrls.num_reads::total             9190494                       # Number of read requests responded to by this memory
system.mem_ctrls.num_writes::ruby.dir_cntrl0      3764721                       # Number of write requests responded to by this memory
system.mem_ctrls.num_writes::total            3764721                       # Number of write requests responded to by this memory
system.mem_ctrls.bw_read::ruby.dir_cntrl0    103614803                       # Total read bandwidth from this memory (bytes/s)
system.mem_ctrls.bw_read::total             103614803                       # Total read bandwidth from this memory (bytes/s)
system.mem_ctrls.bw_write::ruby.dir_cntrl0     42443945                       # Write bandwidth from this memory (bytes/s)
system.mem_ctrls.bw_write::total             42443945                       # Write bandwidth from this memory (bytes/s)
system.mem_ctrls.bw_total::ruby.dir_cntrl0    146058748                       # Total bandwidth to/from this memory (bytes/s)
system.mem_ctrls.bw_total::total            146058748                       # Total bandwidth to/from this memory (bytes/s)
system.mem_ctrls.memReq                      12955215                       # Total number of memory requests
system.mem_ctrls.memRead                      9190494                       # Number of memory reads
system.mem_ctrls.memWrite                     3764721                       # Number of memory writes
system.mem_ctrls.memRefresh                  72155998                       # Number of memory refreshes
system.mem_ctrls.memWaitCycles               23456950                       # Delay stalled at the head of the bank queue
system.mem_ctrls.memInputQ                      26026                       # Delay in the input queue
system.mem_ctrls.memBankQ                      107172                       # Delay behind the head of the bank queue
system.mem_ctrls.totalStalls                 23590148                       # Total number of stall cycles
system.mem_ctrls.stallsPerReq                1.820900                       # Expected number of stall cycles per request
system.mem_ctrls.memBankBusy                 22970250                       # memory stalls due to busy bank
system.mem_ctrls.memBusBusy                    305510                       # memory stalls due to busy bus
system.mem_ctrls.memReadWriteBusy                4702                       # memory stalls due to read write turnaround
system.mem_ctrls.memDataBusBusy                 92302                       # memory stalls due to read read turnaround
system.mem_ctrls.memArbWait                     84186                       # memory stalls due to arbitration
system.mem_ctrls.memBankCount            |      404604      3.12%      3.12% |      403366      3.11%      6.24% |      404060      3.12%      9.36% |      403734      3.12%     12.47% |      403971      3.12%     15.59% |      404101      3.12%     18.71% |      404374      3.12%     21.83% |      404069      3.12%     24.95% |      403286      3.11%     28.06% |      404030      3.12%     31.18% |      404325      3.12%     34.30% |      404004      3.12%     37.42% |      403421      3.11%     40.53% |      404270      3.12%     43.66% |      403909      3.12%     46.77% |      404258      3.12%     49.89% |      405709      3.13%     53.02% |      405175      3.13%     56.15% |      405633      3.13%     59.28% |      405376      3.13%     62.41% |      406046      3.13%     65.55% |      405790      3.13%     68.68% |      405777      3.13%     71.81% |      407857      3.15%     74.96% |      406120      3.13%     78.09% |      405362      3.13%     81.22% |      405696      3.13%     84.35% |      405425      3.13%     87.48% |      404830      3.12%     90.61% |      405245      3.13%     93.74% |      405982      3.13%     96.87% |      405410      3.13%    100.00% # Number of accesses per bank
system.mem_ctrls.memBankCount::total         12955215                       # Number of accesses per bank
system.cpu_voltage_domain.voltage                   1                       # Voltage in Volts
system.cpu_clk_domain.clock                       500                       # Clock period in ticks
system.cpu0.apic_clk_domain.clock                8000                       # Clock period in ticks
system.cpu0.workload.num_syscalls                 180                       # Number of system calls
system.cpu0.numCycles                     11353428280                       # number of cpu cycles simulated
system.cpu0.numWorkItemsStarted                     0                       # number of work items this cpu started
system.cpu0.numWorkItemsCompleted                   0                       # number of work items this cpu completed
system.cpu0.committedInsts                 3172592116                       # Number of instructions committed
system.cpu0.committedOps                   9051401436                       # Number of ops (including micro ops) committed
system.cpu0.num_int_alu_accesses           8539108165                       # Number of integer alu accesses
system.cpu0.num_fp_alu_accesses             216644550                       # Number of float alu accesses
system.cpu0.num_func_calls                  304262268                       # number of times a function call or return occured
system.cpu0.num_conditional_control_insts    700510638                       # number of instructions that are conditional controls
system.cpu0.num_int_insts                  8539108165                       # number of integer instructions
system.cpu0.num_fp_insts                    216644550                       # number of float instructions
system.cpu0.num_int_register_reads        17992204525                       # number of times the integer registers were read
system.cpu0.num_int_register_writes        8503236380                       # number of times the integer registers were written
system.cpu0.num_fp_register_reads           348151590                       # number of times the floating registers were read
system.cpu0.num_fp_register_writes          170275978                       # number of times the floating registers were written
system.cpu0.num_cc_register_reads          7232361543                       # number of times the CC registers were read
system.cpu0.num_cc_register_writes         2710289984                       # number of times the CC registers were written
system.cpu0.num_mem_refs                   1383582980                       # number of memory refs
system.cpu0.num_load_insts                  840817822                       # Number of load instructions
system.cpu0.num_store_insts                 542765158                       # Number of store instructions
system.cpu0.num_idle_cycles                  0.002000                       # Number of idle cycles
system.cpu0.num_busy_cycles              11353428279.997999                       # Number of busy cycles
system.cpu0.not_idle_fraction                1.000000                       # Percentage of non-idle cycles
system.cpu0.idle_fraction                    0.000000                       # Percentage of idle cycles
system.cpu0.Branches                       1150748147                       # Number of branches fetched
system.cpu0.op_class::No_OpClass            177947949      1.97%      1.97% # Class of executed instruction
system.cpu0.op_class::IntAlu               6559641385     72.47%     74.44% # Class of executed instruction
system.cpu0.op_class::IntMult                     389      0.00%     74.44% # Class of executed instruction
system.cpu0.op_class::IntDiv                759953512      8.40%     82.83% # Class of executed instruction
system.cpu0.op_class::FloatAdd              170275221      1.88%     84.71% # Class of executed instruction
system.cpu0.op_class::FloatCmp                      0      0.00%     84.71% # Class of executed instruction
system.cpu0.op_class::FloatCvt                      0      0.00%     84.71% # Class of executed instruction
system.cpu0.op_class::FloatMult                     0      0.00%     84.71% # Class of executed instruction
system.cpu0.op_class::FloatDiv                      0      0.00%     84.71% # Class of executed instruction
system.cpu0.op_class::FloatSqrt                     0      0.00%     84.71% # Class of executed instruction
system.cpu0.op_class::SimdAdd                       0      0.00%     84.71% # Class of executed instruction
system.cpu0.op_class::SimdAddAcc                    0      0.00%     84.71% # Class of executed instruction
system.cpu0.op_class::SimdAlu                       0      0.00%     84.71% # Class of executed instruction
system.cpu0.op_class::SimdCmp                       0      0.00%     84.71% # Class of executed instruction
system.cpu0.op_class::SimdCvt                       0      0.00%     84.71% # Class of executed instruction
system.cpu0.op_class::SimdMisc                      0      0.00%     84.71% # Class of executed instruction
system.cpu0.op_class::SimdMult                      0      0.00%     84.71% # Class of executed instruction
system.cpu0.op_class::SimdMultAcc                   0      0.00%     84.71% # Class of executed instruction
system.cpu0.op_class::SimdShift                     0      0.00%     84.71% # Class of executed instruction
system.cpu0.op_class::SimdShiftAcc                  0      0.00%     84.71% # Class of executed instruction
system.cpu0.op_class::SimdSqrt                      0      0.00%     84.71% # Class of executed instruction
system.cpu0.op_class::SimdFloatAdd                  0      0.00%     84.71% # Class of executed instruction
system.cpu0.op_class::SimdFloatAlu                  0      0.00%     84.71% # Class of executed instruction
system.cpu0.op_class::SimdFloatCmp                  0      0.00%     84.71% # Class of executed instruction
system.cpu0.op_class::SimdFloatCvt                  0      0.00%     84.71% # Class of executed instruction
system.cpu0.op_class::SimdFloatDiv                  0      0.00%     84.71% # Class of executed instruction
system.cpu0.op_class::SimdFloatMisc                 0      0.00%     84.71% # Class of executed instruction
system.cpu0.op_class::SimdFloatMult                 0      0.00%     84.71% # Class of executed instruction
system.cpu0.op_class::SimdFloatMultAcc              0      0.00%     84.71% # Class of executed instruction
system.cpu0.op_class::SimdFloatSqrt                 0      0.00%     84.71% # Class of executed instruction
system.cpu0.op_class::MemRead               840817822      9.29%     94.00% # Class of executed instruction
system.cpu0.op_class::MemWrite              542765158      6.00%    100.00% # Class of executed instruction
system.cpu0.op_class::IprAccess                     0      0.00%    100.00% # Class of executed instruction
system.cpu0.op_class::InstPrefetch                  0      0.00%    100.00% # Class of executed instruction
system.cpu0.op_class::total                9051401436                       # Class of executed instruction
system.cpu1.apic_clk_domain.clock                8000                       # Clock period in ticks
system.cpu1.numCycles                     11345360622                       # number of cpu cycles simulated
system.cpu1.numWorkItemsStarted                     0                       # number of work items this cpu started
system.cpu1.numWorkItemsCompleted                   0                       # number of work items this cpu completed
system.cpu1.committedInsts                   58077232                       # Number of instructions committed
system.cpu1.committedOps                    116148195                       # Number of ops (including micro ops) committed
system.cpu1.num_int_alu_accesses             87175319                       # Number of integer alu accesses
system.cpu1.num_fp_alu_accesses              56894279                       # Number of float alu accesses
system.cpu1.num_func_calls                     161815                       # number of times a function call or return occured
system.cpu1.num_conditional_control_insts      7134452                       # number of instructions that are conditional controls
system.cpu1.num_int_insts                    87175319                       # number of integer instructions
system.cpu1.num_fp_insts                     56894279                       # number of float instructions
system.cpu1.num_int_register_reads          153196448                       # number of times the integer registers were read
system.cpu1.num_int_register_writes          52032168                       # number of times the integer registers were written
system.cpu1.num_fp_register_reads            86190677                       # number of times the floating registers were read
system.cpu1.num_fp_register_writes           56813392                       # number of times the floating registers were written
system.cpu1.num_cc_register_reads            42887640                       # number of times the CC registers were read
system.cpu1.num_cc_register_writes           42862530                       # number of times the CC registers were written
system.cpu1.num_mem_refs                     28338623                       # number of memory refs
system.cpu1.num_load_insts                   28176742                       # Number of load instructions
system.cpu1.num_store_insts                    161881                       # Number of store instructions
system.cpu1.num_idle_cycles              11049350040.395697                       # Number of idle cycles
system.cpu1.num_busy_cycles              296010581.604304                       # Number of busy cycles
system.cpu1.not_idle_fraction                0.026091                       # Percentage of non-idle cycles
system.cpu1.idle_fraction                    0.973909                       # Percentage of idle cycles
system.cpu1.Branches                          7383422                       # Number of branches fetched
system.cpu1.op_class::No_OpClass                    2      0.00%      0.00% # Class of executed instruction
system.cpu1.op_class::IntAlu                 58594024     50.45%     50.45% # Class of executed instruction
system.cpu1.op_class::IntMult                  242657      0.21%     50.66% # Class of executed instruction
system.cpu1.op_class::IntDiv                       14      0.00%     50.66% # Class of executed instruction
system.cpu1.op_class::FloatAdd               28972875     24.94%     75.60% # Class of executed instruction
system.cpu1.op_class::FloatCmp                      0      0.00%     75.60% # Class of executed instruction
system.cpu1.op_class::FloatCvt                      0      0.00%     75.60% # Class of executed instruction
system.cpu1.op_class::FloatMult                     0      0.00%     75.60% # Class of executed instruction
system.cpu1.op_class::FloatDiv                      0      0.00%     75.60% # Class of executed instruction
system.cpu1.op_class::FloatSqrt                     0      0.00%     75.60% # Class of executed instruction
system.cpu1.op_class::SimdAdd                       0      0.00%     75.60% # Class of executed instruction
system.cpu1.op_class::SimdAddAcc                    0      0.00%     75.60% # Class of executed instruction
system.cpu1.op_class::SimdAlu                       0      0.00%     75.60% # Class of executed instruction
system.cpu1.op_class::SimdCmp                       0      0.00%     75.60% # Class of executed instruction
system.cpu1.op_class::SimdCvt                       0      0.00%     75.60% # Class of executed instruction
system.cpu1.op_class::SimdMisc                      0      0.00%     75.60% # Class of executed instruction
system.cpu1.op_class::SimdMult                      0      0.00%     75.60% # Class of executed instruction
system.cpu1.op_class::SimdMultAcc                   0      0.00%     75.60% # Class of executed instruction
system.cpu1.op_class::SimdShift                     0      0.00%     75.60% # Class of executed instruction
system.cpu1.op_class::SimdShiftAcc                  0      0.00%     75.60% # Class of executed instruction
system.cpu1.op_class::SimdSqrt                      0      0.00%     75.60% # Class of executed instruction
system.cpu1.op_class::SimdFloatAdd                  0      0.00%     75.60% # Class of executed instruction
system.cpu1.op_class::SimdFloatAlu                  0      0.00%     75.60% # Class of executed instruction
system.cpu1.op_class::SimdFloatCmp                  0      0.00%     75.60% # Class of executed instruction
system.cpu1.op_class::SimdFloatCvt                  0      0.00%     75.60% # Class of executed instruction
system.cpu1.op_class::SimdFloatDiv                  0      0.00%     75.60% # Class of executed instruction
system.cpu1.op_class::SimdFloatMisc                 0      0.00%     75.60% # Class of executed instruction
system.cpu1.op_class::SimdFloatMult                 0      0.00%     75.60% # Class of executed instruction
system.cpu1.op_class::SimdFloatMultAcc              0      0.00%     75.60% # Class of executed instruction
system.cpu1.op_class::SimdFloatSqrt                 0      0.00%     75.60% # Class of executed instruction
system.cpu1.op_class::MemRead                28176742     24.26%     99.86% # Class of executed instruction
system.cpu1.op_class::MemWrite                 161881      0.14%    100.00% # Class of executed instruction
system.cpu1.op_class::IprAccess                     0      0.00%    100.00% # Class of executed instruction
system.cpu1.op_class::InstPrefetch                  0      0.00%    100.00% # Class of executed instruction
system.cpu1.op_class::total                 116148195                       # Class of executed instruction
system.cpu2.apic_clk_domain.clock                8000                       # Clock period in ticks
system.cpu2.numCycles                     11353172846                       # number of cpu cycles simulated
system.cpu2.numWorkItemsStarted                     0                       # number of work items this cpu started
system.cpu2.numWorkItemsCompleted                   0                       # number of work items this cpu completed
system.cpu2.committedInsts                   58077232                       # Number of instructions committed
system.cpu2.committedOps                    116148195                       # Number of ops (including micro ops) committed
system.cpu2.num_int_alu_accesses             87175319                       # Number of integer alu accesses
system.cpu2.num_fp_alu_accesses              56894279                       # Number of float alu accesses
system.cpu2.num_func_calls                     161815                       # number of times a function call or return occured
system.cpu2.num_conditional_control_insts      7134452                       # number of instructions that are conditional controls
system.cpu2.num_int_insts                    87175319                       # number of integer instructions
system.cpu2.num_fp_insts                     56894279                       # number of float instructions
system.cpu2.num_int_register_reads          153196448                       # number of times the integer registers were read
system.cpu2.num_int_register_writes          52032168                       # number of times the integer registers were written
system.cpu2.num_fp_register_reads            86190677                       # number of times the floating registers were read
system.cpu2.num_fp_register_writes           56813392                       # number of times the floating registers were written
system.cpu2.num_cc_register_reads            42887640                       # number of times the CC registers were read
system.cpu2.num_cc_register_writes           42862530                       # number of times the CC registers were written
system.cpu2.num_mem_refs                     28338623                       # number of memory refs
system.cpu2.num_load_insts                   28176742                       # Number of load instructions
system.cpu2.num_store_insts                    161881                       # Number of store instructions
system.cpu2.num_idle_cycles              11049146866.252832                       # Number of idle cycles
system.cpu2.num_busy_cycles              304025979.747167                       # Number of busy cycles
system.cpu2.not_idle_fraction                0.026779                       # Percentage of non-idle cycles
system.cpu2.idle_fraction                    0.973221                       # Percentage of idle cycles
system.cpu2.Branches                          7383422                       # Number of branches fetched
system.cpu2.op_class::No_OpClass                    2      0.00%      0.00% # Class of executed instruction
system.cpu2.op_class::IntAlu                 58594024     50.45%     50.45% # Class of executed instruction
system.cpu2.op_class::IntMult                  242657      0.21%     50.66% # Class of executed instruction
system.cpu2.op_class::IntDiv                       14      0.00%     50.66% # Class of executed instruction
system.cpu2.op_class::FloatAdd               28972875     24.94%     75.60% # Class of executed instruction
system.cpu2.op_class::FloatCmp                      0      0.00%     75.60% # Class of executed instruction
system.cpu2.op_class::FloatCvt                      0      0.00%     75.60% # Class of executed instruction
system.cpu2.op_class::FloatMult                     0      0.00%     75.60% # Class of executed instruction
system.cpu2.op_class::FloatDiv                      0      0.00%     75.60% # Class of executed instruction
system.cpu2.op_class::FloatSqrt                     0      0.00%     75.60% # Class of executed instruction
system.cpu2.op_class::SimdAdd                       0      0.00%     75.60% # Class of executed instruction
system.cpu2.op_class::SimdAddAcc                    0      0.00%     75.60% # Class of executed instruction
system.cpu2.op_class::SimdAlu                       0      0.00%     75.60% # Class of executed instruction
system.cpu2.op_class::SimdCmp                       0      0.00%     75.60% # Class of executed instruction
system.cpu2.op_class::SimdCvt                       0      0.00%     75.60% # Class of executed instruction
system.cpu2.op_class::SimdMisc                      0      0.00%     75.60% # Class of executed instruction
system.cpu2.op_class::SimdMult                      0      0.00%     75.60% # Class of executed instruction
system.cpu2.op_class::SimdMultAcc                   0      0.00%     75.60% # Class of executed instruction
system.cpu2.op_class::SimdShift                     0      0.00%     75.60% # Class of executed instruction
system.cpu2.op_class::SimdShiftAcc                  0      0.00%     75.60% # Class of executed instruction
system.cpu2.op_class::SimdSqrt                      0      0.00%     75.60% # Class of executed instruction
system.cpu2.op_class::SimdFloatAdd                  0      0.00%     75.60% # Class of executed instruction
system.cpu2.op_class::SimdFloatAlu                  0      0.00%     75.60% # Class of executed instruction
system.cpu2.op_class::SimdFloatCmp                  0      0.00%     75.60% # Class of executed instruction
system.cpu2.op_class::SimdFloatCvt                  0      0.00%     75.60% # Class of executed instruction
system.cpu2.op_class::SimdFloatDiv                  0      0.00%     75.60% # Class of executed instruction
system.cpu2.op_class::SimdFloatMisc                 0      0.00%     75.60% # Class of executed instruction
system.cpu2.op_class::SimdFloatMult                 0      0.00%     75.60% # Class of executed instruction
system.cpu2.op_class::SimdFloatMultAcc              0      0.00%     75.60% # Class of executed instruction
system.cpu2.op_class::SimdFloatSqrt                 0      0.00%     75.60% # Class of executed instruction
system.cpu2.op_class::MemRead                28176742     24.26%     99.86% # Class of executed instruction
system.cpu2.op_class::MemWrite                 161881      0.14%    100.00% # Class of executed instruction
system.cpu2.op_class::IprAccess                     0      0.00%    100.00% # Class of executed instruction
system.cpu2.op_class::InstPrefetch                  0      0.00%    100.00% # Class of executed instruction
system.cpu2.op_class::total                 116148195                       # Class of executed instruction
system.cpu3.apic_clk_domain.clock                8000                       # Clock period in ticks
system.cpu3.numCycles                     11353172870                       # number of cpu cycles simulated
system.cpu3.numWorkItemsStarted                     0                       # number of work items this cpu started
system.cpu3.numWorkItemsCompleted                   0                       # number of work items this cpu completed
system.cpu3.committedInsts                   58077232                       # Number of instructions committed
system.cpu3.committedOps                    116148195                       # Number of ops (including micro ops) committed
system.cpu3.num_int_alu_accesses             87175319                       # Number of integer alu accesses
system.cpu3.num_fp_alu_accesses              56894279                       # Number of float alu accesses
system.cpu3.num_func_calls                     161815                       # number of times a function call or return occured
system.cpu3.num_conditional_control_insts      7134452                       # number of instructions that are conditional controls
system.cpu3.num_int_insts                    87175319                       # number of integer instructions
system.cpu3.num_fp_insts                     56894279                       # number of float instructions
system.cpu3.num_int_register_reads          153196448                       # number of times the integer registers were read
system.cpu3.num_int_register_writes          52032168                       # number of times the integer registers were written
system.cpu3.num_fp_register_reads            86190677                       # number of times the floating registers were read
system.cpu3.num_fp_register_writes           56813392                       # number of times the floating registers were written
system.cpu3.num_cc_register_reads            42887640                       # number of times the CC registers were read
system.cpu3.num_cc_register_writes           42862530                       # number of times the CC registers were written
system.cpu3.num_mem_refs                     28338623                       # number of memory refs
system.cpu3.num_load_insts                   28176742                       # Number of load instructions
system.cpu3.num_store_insts                    161881                       # Number of store instructions
system.cpu3.num_idle_cycles              11049147245.602129                       # Number of idle cycles
system.cpu3.num_busy_cycles              304025624.397871                       # Number of busy cycles
system.cpu3.not_idle_fraction                0.026779                       # Percentage of non-idle cycles
system.cpu3.idle_fraction                    0.973221                       # Percentage of idle cycles
system.cpu3.Branches                          7383422                       # Number of branches fetched
system.cpu3.op_class::No_OpClass                    2      0.00%      0.00% # Class of executed instruction
system.cpu3.op_class::IntAlu                 58594024     50.45%     50.45% # Class of executed instruction
system.cpu3.op_class::IntMult                  242657      0.21%     50.66% # Class of executed instruction
system.cpu3.op_class::IntDiv                       14      0.00%     50.66% # Class of executed instruction
system.cpu3.op_class::FloatAdd               28972875     24.94%     75.60% # Class of executed instruction
system.cpu3.op_class::FloatCmp                      0      0.00%     75.60% # Class of executed instruction
system.cpu3.op_class::FloatCvt                      0      0.00%     75.60% # Class of executed instruction
system.cpu3.op_class::FloatMult                     0      0.00%     75.60% # Class of executed instruction
system.cpu3.op_class::FloatDiv                      0      0.00%     75.60% # Class of executed instruction
system.cpu3.op_class::FloatSqrt                     0      0.00%     75.60% # Class of executed instruction
system.cpu3.op_class::SimdAdd                       0      0.00%     75.60% # Class of executed instruction
system.cpu3.op_class::SimdAddAcc                    0      0.00%     75.60% # Class of executed instruction
system.cpu3.op_class::SimdAlu                       0      0.00%     75.60% # Class of executed instruction
system.cpu3.op_class::SimdCmp                       0      0.00%     75.60% # Class of executed instruction
system.cpu3.op_class::SimdCvt                       0      0.00%     75.60% # Class of executed instruction
system.cpu3.op_class::SimdMisc                      0      0.00%     75.60% # Class of executed instruction
system.cpu3.op_class::SimdMult                      0      0.00%     75.60% # Class of executed instruction
system.cpu3.op_class::SimdMultAcc                   0      0.00%     75.60% # Class of executed instruction
system.cpu3.op_class::SimdShift                     0      0.00%     75.60% # Class of executed instruction
system.cpu3.op_class::SimdShiftAcc                  0      0.00%     75.60% # Class of executed instruction
system.cpu3.op_class::SimdSqrt                      0      0.00%     75.60% # Class of executed instruction
system.cpu3.op_class::SimdFloatAdd                  0      0.00%     75.60% # Class of executed instruction
system.cpu3.op_class::SimdFloatAlu                  0      0.00%     75.60% # Class of executed instruction
system.cpu3.op_class::SimdFloatCmp                  0      0.00%     75.60% # Class of executed instruction
system.cpu3.op_class::SimdFloatCvt                  0      0.00%     75.60% # Class of executed instruction
system.cpu3.op_class::SimdFloatDiv                  0      0.00%     75.60% # Class of executed instruction
system.cpu3.op_class::SimdFloatMisc                 0      0.00%     75.60% # Class of executed instruction
system.cpu3.op_class::SimdFloatMult                 0      0.00%     75.60% # Class of executed instruction
system.cpu3.op_class::SimdFloatMultAcc              0      0.00%     75.60% # Class of executed instruction
system.cpu3.op_class::SimdFloatSqrt                 0      0.00%     75.60% # Class of executed instruction
system.cpu3.op_class::MemRead                28176742     24.26%     99.86% # Class of executed instruction
system.cpu3.op_class::MemWrite                 161881      0.14%    100.00% # Class of executed instruction
system.cpu3.op_class::IprAccess                     0      0.00%    100.00% # Class of executed instruction
system.cpu3.op_class::InstPrefetch                  0      0.00%    100.00% # Class of executed instruction
system.cpu3.op_class::total                 116148195                       # Class of executed instruction
system.cpu4.apic_clk_domain.clock                8000                       # Clock period in ticks
system.cpu4.numCycles                     11353172898                       # number of cpu cycles simulated
system.cpu4.numWorkItemsStarted                     0                       # number of work items this cpu started
system.cpu4.numWorkItemsCompleted                   0                       # number of work items this cpu completed
system.cpu4.committedInsts                   58077232                       # Number of instructions committed
system.cpu4.committedOps                    116148195                       # Number of ops (including micro ops) committed
system.cpu4.num_int_alu_accesses             87175319                       # Number of integer alu accesses
system.cpu4.num_fp_alu_accesses              56894279                       # Number of float alu accesses
system.cpu4.num_func_calls                     161815                       # number of times a function call or return occured
system.cpu4.num_conditional_control_insts      7134452                       # number of instructions that are conditional controls
system.cpu4.num_int_insts                    87175319                       # number of integer instructions
system.cpu4.num_fp_insts                     56894279                       # number of float instructions
system.cpu4.num_int_register_reads          153196448                       # number of times the integer registers were read
system.cpu4.num_int_register_writes          52032168                       # number of times the integer registers were written
system.cpu4.num_fp_register_reads            86190677                       # number of times the floating registers were read
system.cpu4.num_fp_register_writes           56813392                       # number of times the floating registers were written
system.cpu4.num_cc_register_reads            42887640                       # number of times the CC registers were read
system.cpu4.num_cc_register_writes           42862530                       # number of times the CC registers were written
system.cpu4.num_mem_refs                     28338623                       # number of memory refs
system.cpu4.num_load_insts                   28176742                       # Number of load instructions
system.cpu4.num_store_insts                    161881                       # Number of store instructions
system.cpu4.num_idle_cycles              11049147677.843210                       # Number of idle cycles
system.cpu4.num_busy_cycles              304025220.156790                       # Number of busy cycles
system.cpu4.not_idle_fraction                0.026779                       # Percentage of non-idle cycles
system.cpu4.idle_fraction                    0.973221                       # Percentage of idle cycles
system.cpu4.Branches                          7383422                       # Number of branches fetched
system.cpu4.op_class::No_OpClass                    2      0.00%      0.00% # Class of executed instruction
system.cpu4.op_class::IntAlu                 58594024     50.45%     50.45% # Class of executed instruction
system.cpu4.op_class::IntMult                  242657      0.21%     50.66% # Class of executed instruction
system.cpu4.op_class::IntDiv                       14      0.00%     50.66% # Class of executed instruction
system.cpu4.op_class::FloatAdd               28972875     24.94%     75.60% # Class of executed instruction
system.cpu4.op_class::FloatCmp                      0      0.00%     75.60% # Class of executed instruction
system.cpu4.op_class::FloatCvt                      0      0.00%     75.60% # Class of executed instruction
system.cpu4.op_class::FloatMult                     0      0.00%     75.60% # Class of executed instruction
system.cpu4.op_class::FloatDiv                      0      0.00%     75.60% # Class of executed instruction
system.cpu4.op_class::FloatSqrt                     0      0.00%     75.60% # Class of executed instruction
system.cpu4.op_class::SimdAdd                       0      0.00%     75.60% # Class of executed instruction
system.cpu4.op_class::SimdAddAcc                    0      0.00%     75.60% # Class of executed instruction
system.cpu4.op_class::SimdAlu                       0      0.00%     75.60% # Class of executed instruction
system.cpu4.op_class::SimdCmp                       0      0.00%     75.60% # Class of executed instruction
system.cpu4.op_class::SimdCvt                       0      0.00%     75.60% # Class of executed instruction
system.cpu4.op_class::SimdMisc                      0      0.00%     75.60% # Class of executed instruction
system.cpu4.op_class::SimdMult                      0      0.00%     75.60% # Class of executed instruction
system.cpu4.op_class::SimdMultAcc                   0      0.00%     75.60% # Class of executed instruction
system.cpu4.op_class::SimdShift                     0      0.00%     75.60% # Class of executed instruction
system.cpu4.op_class::SimdShiftAcc                  0      0.00%     75.60% # Class of executed instruction
system.cpu4.op_class::SimdSqrt                      0      0.00%     75.60% # Class of executed instruction
system.cpu4.op_class::SimdFloatAdd                  0      0.00%     75.60% # Class of executed instruction
system.cpu4.op_class::SimdFloatAlu                  0      0.00%     75.60% # Class of executed instruction
system.cpu4.op_class::SimdFloatCmp                  0      0.00%     75.60% # Class of executed instruction
system.cpu4.op_class::SimdFloatCvt                  0      0.00%     75.60% # Class of executed instruction
system.cpu4.op_class::SimdFloatDiv                  0      0.00%     75.60% # Class of executed instruction
system.cpu4.op_class::SimdFloatMisc                 0      0.00%     75.60% # Class of executed instruction
system.cpu4.op_class::SimdFloatMult                 0      0.00%     75.60% # Class of executed instruction
system.cpu4.op_class::SimdFloatMultAcc              0      0.00%     75.60% # Class of executed instruction
system.cpu4.op_class::SimdFloatSqrt                 0      0.00%     75.60% # Class of executed instruction
system.cpu4.op_class::MemRead                28176742     24.26%     99.86% # Class of executed instruction
system.cpu4.op_class::MemWrite                 161881      0.14%    100.00% # Class of executed instruction
system.cpu4.op_class::IprAccess                     0      0.00%    100.00% # Class of executed instruction
system.cpu4.op_class::InstPrefetch                  0      0.00%    100.00% # Class of executed instruction
system.cpu4.op_class::total                 116148195                       # Class of executed instruction
system.ruby.clk_domain.clock                      500                       # Clock period in ticks
system.ruby.delayHist::bucket_size                 32                       # delay histogram for all message
system.ruby.delayHist::max_bucket                 319                       # delay histogram for all message
system.ruby.delayHist::samples               84533620                       # delay histogram for all message
system.ruby.delayHist::mean                  0.407562                       # delay histogram for all message
system.ruby.delayHist::stdev                 1.623576                       # delay histogram for all message
system.ruby.delayHist                    |    84532899    100.00%    100.00% |         700      0.00%    100.00% |          20      0.00%    100.00% |           0      0.00%    100.00% |           0      0.00%    100.00% |           1      0.00%    100.00% |           0      0.00%    100.00% |           0      0.00%    100.00% |           0      0.00%    100.00% |           0      0.00%    100.00% # delay histogram for all message
system.ruby.delayHist::total                 84533620                       # delay histogram for all message
system.ruby.outstanding_req_hist::bucket_size            1                      
system.ruby.outstanding_req_hist::max_bucket            9                      
system.ruby.outstanding_req_hist::samples   5929966164                      
system.ruby.outstanding_req_hist::mean       1.000199                      
system.ruby.outstanding_req_hist::gmean      1.000138                      
system.ruby.outstanding_req_hist::stdev      0.014103                      
system.ruby.outstanding_req_hist         |           0      0.00%      0.00% |  5928786452     99.98%     99.98% |     1179712      0.02%    100.00% |           0      0.00%    100.00% |           0      0.00%    100.00% |           0      0.00%    100.00% |           0      0.00%    100.00% |           0      0.00%    100.00% |           0      0.00%    100.00% |           0      0.00%    100.00%
system.ruby.outstanding_req_hist::total    5929966164                      
system.ruby.latency_hist::bucket_size              32                      
system.ruby.latency_hist::max_bucket              319                      
system.ruby.latency_hist::samples          5929966164                      
system.ruby.latency_hist::mean               1.118649                      
system.ruby.latency_hist::gmean              1.007791                      
system.ruby.latency_hist::stdev              2.829644                      
system.ruby.latency_hist                 |  5919754723     99.83%     99.83% |     5579866      0.09%     99.92% |     4603380      0.08%    100.00% |       28097      0.00%    100.00% |          90      0.00%    100.00% |           7      0.00%    100.00% |           1      0.00%    100.00% |           0      0.00%    100.00% |           0      0.00%    100.00% |           0      0.00%    100.00%
system.ruby.latency_hist::total            5929966164                      
system.ruby.hit_latency_hist::bucket_size           32                      
system.ruby.hit_latency_hist::max_bucket          319                      
system.ruby.hit_latency_hist::samples      5929966164                      
system.ruby.hit_latency_hist::mean           1.118649                      
system.ruby.hit_latency_hist::gmean          1.007791                      
system.ruby.hit_latency_hist::stdev          2.829644                      
system.ruby.hit_latency_hist             |  5919754723     99.83%     99.83% |     5579866      0.09%     99.92% |     4603380      0.08%    100.00% |       28097      0.00%    100.00% |          90      0.00%    100.00% |           7      0.00%    100.00% |           1      0.00%    100.00% |           0      0.00%    100.00% |           0      0.00%    100.00% |           0      0.00%    100.00%
system.ruby.hit_latency_hist::total        5929966164                      
system.ruby.l0_cntrl0.Dcache.demand_hits   1379236189                       # Number of cache demand hits
system.ruby.l0_cntrl0.Dcache.demand_misses      4346855                       # Number of cache demand misses
system.ruby.l0_cntrl0.Dcache.demand_accesses   1383583044                       # Number of cache demand accesses
system.ruby.l0_cntrl0.Icache.demand_hits   4133819620                       # Number of cache demand hits
system.ruby.l0_cntrl0.Icache.demand_misses         6600                       # Number of cache demand misses
system.ruby.l0_cntrl0.Icache.demand_accesses   4133826220                       # Number of cache demand accesses
system.ruby.l0_cntrl0.Zcache.demand_hits    244164020                       # Number of cache demand hits
system.ruby.l0_cntrl0.Zcache.demand_misses      2751119                       # Number of cache demand misses
system.ruby.l0_cntrl0.Zcache.demand_accesses    246915139                       # Number of cache demand accesses
system.ruby.l0_cntrl1.Dcache.demand_hits     26839094                       # Number of cache demand hits
system.ruby.l0_cntrl1.Dcache.demand_misses      1794441                       # Number of cache demand misses
system.ruby.l0_cntrl1.Dcache.demand_accesses     28633535                       # Number of cache demand accesses
system.ruby.l0_cntrl1.Icache.demand_hits     74504427                       # Number of cache demand hits
system.ruby.l0_cntrl1.Icache.demand_misses         1263                       # Number of cache demand misses
system.ruby.l0_cntrl1.Icache.demand_accesses     74505690                       # Number of cache demand accesses
system.ruby.l0_cntrl1.Zcache.demand_hits       141107                       # Number of cache demand hits
system.ruby.l0_cntrl1.Zcache.demand_misses        10928                       # Number of cache demand misses
system.ruby.l0_cntrl1.Zcache.demand_accesses       152035                       # Number of cache demand accesses
system.ruby.l0_cntrl2.Dcache.demand_hits     26848297                       # Number of cache demand hits
system.ruby.l0_cntrl2.Dcache.demand_misses      1785238                       # Number of cache demand misses
system.ruby.l0_cntrl2.Dcache.demand_accesses     28633535                       # Number of cache demand accesses
system.ruby.l0_cntrl2.Icache.demand_hits     74504571                       # Number of cache demand hits
system.ruby.l0_cntrl2.Icache.demand_misses         1119                       # Number of cache demand misses
system.ruby.l0_cntrl2.Icache.demand_accesses     74505690                       # Number of cache demand accesses
system.ruby.l0_cntrl2.Zcache.demand_hits       144545                       # Number of cache demand hits
system.ruby.l0_cntrl2.Zcache.demand_misses        10639                       # Number of cache demand misses
system.ruby.l0_cntrl2.Zcache.demand_accesses       155184                       # Number of cache demand accesses
system.ruby.l0_cntrl3.Dcache.demand_hits     26851550                       # Number of cache demand hits
system.ruby.l0_cntrl3.Dcache.demand_misses      1781985                       # Number of cache demand misses
system.ruby.l0_cntrl3.Dcache.demand_accesses     28633535                       # Number of cache demand accesses
system.ruby.l0_cntrl3.Icache.demand_hits     74504616                       # Number of cache demand hits
system.ruby.l0_cntrl3.Icache.demand_misses         1074                       # Number of cache demand misses
system.ruby.l0_cntrl3.Icache.demand_accesses     74505690                       # Number of cache demand accesses
system.ruby.l0_cntrl3.Zcache.demand_hits       147413                       # Number of cache demand hits
system.ruby.l0_cntrl3.Zcache.demand_misses        10693                       # Number of cache demand misses
system.ruby.l0_cntrl3.Zcache.demand_accesses       158106                       # Number of cache demand accesses
system.ruby.l0_cntrl4.Dcache.demand_hits     26842648                       # Number of cache demand hits
system.ruby.l0_cntrl4.Dcache.demand_misses      1790887                       # Number of cache demand misses
system.ruby.l0_cntrl4.Dcache.demand_accesses     28633535                       # Number of cache demand accesses
system.ruby.l0_cntrl4.Icache.demand_hits     74504535                       # Number of cache demand hits
system.ruby.l0_cntrl4.Icache.demand_misses         1155                       # Number of cache demand misses
system.ruby.l0_cntrl4.Icache.demand_accesses     74505690                       # Number of cache demand accesses
system.ruby.l0_cntrl4.Zcache.demand_hits       150067                       # Number of cache demand hits
system.ruby.l0_cntrl4.Zcache.demand_misses        10863                       # Number of cache demand misses
system.ruby.l0_cntrl4.Zcache.demand_accesses       160930                       # Number of cache demand accesses
system.ruby.l1_cntrl0.cache.demand_hits           253                       # Number of cache demand hits
system.ruby.l1_cntrl0.cache.demand_misses      4353202                       # Number of cache demand misses
system.ruby.l1_cntrl0.cache.demand_accesses      4353455                       # Number of cache demand accesses
system.ruby.l1_cntrl0.zcache.demand_hits          114                       # Number of cache demand hits
system.ruby.l1_cntrl0.zcache.demand_misses      1058547                       # Number of cache demand misses
system.ruby.l1_cntrl0.zcache.demand_accesses      1058661                       # Number of cache demand accesses
system.ruby.l1_cntrl1.cache.demand_hits        196994                       # Number of cache demand hits
system.ruby.l1_cntrl1.cache.demand_misses      1598710                       # Number of cache demand misses
system.ruby.l1_cntrl1.cache.demand_accesses      1795704                       # Number of cache demand accesses
system.ruby.l1_cntrl1.zcache.demand_hits            0                       # Number of cache demand hits
system.ruby.l1_cntrl1.zcache.demand_misses            0                       # Number of cache demand misses
system.ruby.l1_cntrl1.zcache.demand_accesses            0                       # Number of cache demand accesses
system.ruby.l1_cntrl2.cache.demand_hits        171276                       # Number of cache demand hits
system.ruby.l1_cntrl2.cache.demand_misses      1615081                       # Number of cache demand misses
system.ruby.l1_cntrl2.cache.demand_accesses      1786357                       # Number of cache demand accesses
system.ruby.l1_cntrl2.zcache.demand_hits            0                       # Number of cache demand hits
system.ruby.l1_cntrl2.zcache.demand_misses            0                       # Number of cache demand misses
system.ruby.l1_cntrl2.zcache.demand_accesses            0                       # Number of cache demand accesses
system.ruby.l1_cntrl3.cache.demand_hits        162684                       # Number of cache demand hits
system.ruby.l1_cntrl3.cache.demand_misses      1620375                       # Number of cache demand misses
system.ruby.l1_cntrl3.cache.demand_accesses      1783059                       # Number of cache demand accesses
system.ruby.l1_cntrl3.zcache.demand_hits            0                       # Number of cache demand hits
system.ruby.l1_cntrl3.zcache.demand_misses            0                       # Number of cache demand misses
system.ruby.l1_cntrl3.zcache.demand_accesses            0                       # Number of cache demand accesses
system.ruby.l1_cntrl4.cache.demand_hits        175766                       # Number of cache demand hits
system.ruby.l1_cntrl4.cache.demand_misses      1616276                       # Number of cache demand misses
system.ruby.l1_cntrl4.cache.demand_accesses      1792042                       # Number of cache demand accesses
system.ruby.l1_cntrl4.zcache.demand_hits            0                       # Number of cache demand hits
system.ruby.l1_cntrl4.zcache.demand_misses            0                       # Number of cache demand misses
system.ruby.l1_cntrl4.zcache.demand_accesses            0                       # Number of cache demand accesses
system.ruby.l2_cntrl0.L2cache.demand_hits       593919                       # Number of cache demand hits
system.ruby.l2_cntrl0.L2cache.demand_misses     10209725                       # Number of cache demand misses
system.ruby.l2_cntrl0.L2cache.demand_accesses     10803644                       # Number of cache demand accesses
system.ruby.l2_cntrl0.ZL2cache.demand_hits        21467                       # Number of cache demand hits
system.ruby.l2_cntrl0.ZL2cache.demand_misses       622208                       # Number of cache demand misses
system.ruby.l2_cntrl0.ZL2cache.demand_accesses       643675                       # Number of cache demand accesses
system.ruby.l2_cntrl0.fully_busy_cycles          5269                       # cycles for which number of transistions == max transitions
system.ruby.memctrl_clk_domain.clock             1500                       # Clock period in ticks
system.ruby.network.routers00.percent_links_utilized            0                      
system.ruby.network.routers01.percent_links_utilized            0                      
system.ruby.network.routers02.percent_links_utilized            0                      
system.ruby.network.routers03.percent_links_utilized            0                      
system.ruby.network.routers04.percent_links_utilized            0                      
system.ruby.network.routers05.percent_links_utilized     0.201254                      
system.ruby.network.routers05.msg_count.Control::0      4353202                      
system.ruby.network.routers05.msg_count.Request_Control::2      1963740                      
system.ruby.network.routers05.msg_count.Response_Data::1      4353198                      
system.ruby.network.routers05.msg_count.Response_Control::1      2389747                      
system.ruby.network.routers05.msg_count.Response_Control::2      4353193                      
system.ruby.network.routers05.msg_count.Writeback_Data::0      2388227                      
system.ruby.network.routers05.msg_count.Writeback_Data::1      1962664                      
system.ruby.network.routers05.msg_count.Writeback_Control::0          386                      
system.ruby.network.routers05.msg_bytes.Control::0     34825616                      
system.ruby.network.routers05.msg_bytes.Request_Control::2     15709920                      
system.ruby.network.routers05.msg_bytes.Response_Data::1    313430256                      
system.ruby.network.routers05.msg_bytes.Response_Control::1     19117976                      
system.ruby.network.routers05.msg_bytes.Response_Control::2     34825544                      
system.ruby.network.routers05.msg_bytes.Writeback_Data::0    171952344                      
system.ruby.network.routers05.msg_bytes.Writeback_Data::1    141311808                      
system.ruby.network.routers05.msg_bytes.Writeback_Control::0         3088                      
system.ruby.network.routers06.percent_links_utilized     0.056800                      
system.ruby.network.routers06.msg_count.Control::0      1598710                      
system.ruby.network.routers06.msg_count.Request_Control::2       775438                      
system.ruby.network.routers06.msg_count.Response_Data::1      1604285                      
system.ruby.network.routers06.msg_count.Response_Control::1       997284                      
system.ruby.network.routers06.msg_count.Response_Control::2      1593884                      
system.ruby.network.routers06.msg_count.Writeback_Data::0        24880                      
system.ruby.network.routers06.msg_count.Writeback_Data::1       596741                      
system.ruby.network.routers06.msg_count.Writeback_Control::0       796494                      
system.ruby.network.routers06.msg_bytes.Control::0     12789680                      
system.ruby.network.routers06.msg_bytes.Request_Control::2      6203504                      
system.ruby.network.routers06.msg_bytes.Response_Data::1    115508520                      
system.ruby.network.routers06.msg_bytes.Response_Control::1      7978272                      
system.ruby.network.routers06.msg_bytes.Response_Control::2     12751072                      
system.ruby.network.routers06.msg_bytes.Writeback_Data::0      1791360                      
system.ruby.network.routers06.msg_bytes.Writeback_Data::1     42965352                      
system.ruby.network.routers06.msg_bytes.Writeback_Control::0      6371952                      
system.ruby.network.routers07.percent_links_utilized     0.055008                      
system.ruby.network.routers07.msg_count.Control::0      1615081                      
system.ruby.network.routers07.msg_count.Request_Control::2      1106142                      
system.ruby.network.routers07.msg_count.Response_Data::1      1616730                      
system.ruby.network.routers07.msg_count.Response_Control::1      1031999                      
system.ruby.network.routers07.msg_count.Response_Control::2      1083482                      
system.ruby.network.routers07.msg_count.Writeback_Data::0        13560                      
system.ruby.network.routers07.msg_count.Writeback_Data::1       555864                      
system.ruby.network.routers07.msg_count.Writeback_Control::0       468986                      
system.ruby.network.routers07.msg_bytes.Control::0     12920648                      
system.ruby.network.routers07.msg_bytes.Request_Control::2      8849136                      
system.ruby.network.routers07.msg_bytes.Response_Data::1    116404560                      
system.ruby.network.routers07.msg_bytes.Response_Control::1      8255992                      
system.ruby.network.routers07.msg_bytes.Response_Control::2      8667856                      
system.ruby.network.routers07.msg_bytes.Writeback_Data::0       976320                      
system.ruby.network.routers07.msg_bytes.Writeback_Data::1     40022208                      
system.ruby.network.routers07.msg_bytes.Writeback_Control::0      3751888                      
system.ruby.network.routers08.percent_links_utilized     0.052610                      
system.ruby.network.routers08.msg_count.Control::0      1620375                      
system.ruby.network.routers08.msg_count.Request_Control::2      1173369                      
system.ruby.network.routers08.msg_count.Response_Data::1      1624389                      
system.ruby.network.routers08.msg_count.Response_Control::1      1187087                      
system.ruby.network.routers08.msg_count.Response_Control::2      1091167                      
system.ruby.network.routers08.msg_count.Writeback_Data::0        13196                      
system.ruby.network.routers08.msg_count.Writeback_Data::1       407932                      
system.ruby.network.routers08.msg_count.Writeback_Control::0       410461                      
system.ruby.network.routers08.msg_bytes.Control::0     12963000                      
system.ruby.network.routers08.msg_bytes.Request_Control::2      9386952                      
system.ruby.network.routers08.msg_bytes.Response_Data::1    116956008                      
system.ruby.network.routers08.msg_bytes.Response_Control::1      9496696                      
system.ruby.network.routers08.msg_bytes.Response_Control::2      8729336                      
system.ruby.network.routers08.msg_bytes.Writeback_Data::0       950112                      
system.ruby.network.routers08.msg_bytes.Writeback_Data::1     29371104                      
system.ruby.network.routers08.msg_bytes.Writeback_Control::0      3283688                      
system.ruby.network.routers09.percent_links_utilized     0.052841                      
system.ruby.network.routers09.msg_count.Control::0      1616276                      
system.ruby.network.routers09.msg_count.Request_Control::2      1106472                      
system.ruby.network.routers09.msg_count.Response_Data::1      1649851                      
system.ruby.network.routers09.msg_count.Response_Control::1      1201027                      
system.ruby.network.routers09.msg_count.Response_Control::2      1103253                      
system.ruby.network.routers09.msg_count.Writeback_Data::0        15779                      
system.ruby.network.routers09.msg_count.Writeback_Data::1       388378                      
system.ruby.network.routers09.msg_count.Writeback_Control::0       483941                      
system.ruby.network.routers09.msg_bytes.Control::0     12930208                      
system.ruby.network.routers09.msg_bytes.Request_Control::2      8851776                      
system.ruby.network.routers09.msg_bytes.Response_Data::1    118789272                      
system.ruby.network.routers09.msg_bytes.Response_Control::1      9608216                      
system.ruby.network.routers09.msg_bytes.Response_Control::2      8826024                      
system.ruby.network.routers09.msg_bytes.Writeback_Data::0      1136088                      
system.ruby.network.routers09.msg_bytes.Writeback_Data::1     27963216                      
system.ruby.network.routers09.msg_bytes.Writeback_Control::0      3871528                      
system.ruby.network.routers10.percent_links_utilized     0.704603                      
system.ruby.network.routers10.msg_count.Control::0     19994138                      
system.ruby.network.routers10.msg_count.Request_Control::2      5100648                      
system.ruby.network.routers10.msg_count.Response_Data::1     22762009                      
system.ruby.network.routers10.msg_count.Response_Control::1     21343447                      
system.ruby.network.routers10.msg_count.Response_Control::2      9224979                      
system.ruby.network.routers10.msg_count.Writeback_Data::0      2455642                      
system.ruby.network.routers10.msg_count.Writeback_Data::1      3911579                      
system.ruby.network.routers10.msg_count.Writeback_Control::0      2160268                      
system.ruby.network.routers10.msg_bytes.Control::0    159953104                      
system.ruby.network.routers10.msg_bytes.Request_Control::2     40805184                      
system.ruby.network.routers10.msg_bytes.Response_Data::1   1638864648                      
system.ruby.network.routers10.msg_bytes.Response_Control::1    170747576                      
system.ruby.network.routers10.msg_bytes.Response_Control::2     73799832                      
system.ruby.network.routers10.msg_bytes.Writeback_Data::0    176806224                      
system.ruby.network.routers10.msg_bytes.Writeback_Data::1    281633688                      
system.ruby.network.routers10.msg_bytes.Writeback_Control::0     17282144                      
system.ruby.network.routers11.percent_links_utilized     0.308990                      
system.ruby.network.routers11.msg_count.Control::0      9190494                      
system.ruby.network.routers11.msg_count.Response_Data::1     12955215                      
system.ruby.network.routers11.msg_count.Response_Control::1     14536395                      
system.ruby.network.routers11.msg_bytes.Control::0     73523952                      
system.ruby.network.routers11.msg_bytes.Response_Data::1    932775480                      
system.ruby.network.routers11.msg_bytes.Response_Control::1    116291160                      
system.ruby.network.routers12.percent_links_utilized     0.121176                      
system.ruby.network.routers12.msg_count.Control::0     19994138                      
system.ruby.network.routers12.msg_count.Request_Control::2      6125161                      
system.ruby.network.routers12.msg_count.Response_Data::1     23781240                      
system.ruby.network.routers12.msg_count.Response_Control::1     21343493                      
system.ruby.network.routers12.msg_count.Response_Control::2      9224979                      
system.ruby.network.routers12.msg_count.Writeback_Data::0      2455642                      
system.ruby.network.routers12.msg_count.Writeback_Data::1      3911579                      
system.ruby.network.routers12.msg_count.Writeback_Control::0      2160268                      
system.ruby.network.routers12.msg_bytes.Control::0    159953104                      
system.ruby.network.routers12.msg_bytes.Request_Control::2     49001288                      
system.ruby.network.routers12.msg_bytes.Response_Data::1   1712249280                      
system.ruby.network.routers12.msg_bytes.Response_Control::1    170747944                      
system.ruby.network.routers12.msg_bytes.Response_Control::2     73799832                      
system.ruby.network.routers12.msg_bytes.Writeback_Data::0    176806224                      
system.ruby.network.routers12.msg_bytes.Writeback_Data::1    281633688                      
system.ruby.network.routers12.msg_bytes.Writeback_Control::0     17282144                      
system.ruby.network.msg_count.Control        59982414                      
system.ruby.network.msg_count.Request_Control     17350970                      
system.ruby.network.msg_count.Response_Data     70346917                      
system.ruby.network.msg_count.Response_Control     91705416                      
system.ruby.network.msg_count.Writeback_Data     19101663                      
system.ruby.network.msg_count.Writeback_Control      6480804                      
system.ruby.network.msg_byte.Control        479859312                      
system.ruby.network.msg_byte.Request_Control    138807760                      
system.ruby.network.msg_byte.Response_Data   5064978024                      
system.ruby.network.msg_byte.Response_Control    733643328                      
system.ruby.network.msg_byte.Writeback_Data   1375319736                      
system.ruby.network.msg_byte.Writeback_Control     51846432                      
system.ruby.network.routers00.throttle0.link_utilization            0                      
system.ruby.network.routers00.throttle1.link_utilization            0                      
system.ruby.network.routers01.throttle0.link_utilization            0                      
system.ruby.network.routers01.throttle1.link_utilization            0                      
system.ruby.network.routers02.throttle0.link_utilization            0                      
system.ruby.network.routers02.throttle1.link_utilization            0                      
system.ruby.network.routers03.throttle0.link_utilization            0                      
system.ruby.network.routers03.throttle1.link_utilization            0                      
system.ruby.network.routers04.throttle0.link_utilization            0                      
system.ruby.network.routers04.throttle1.link_utilization            0                      
system.ruby.network.routers05.throttle0.link_utilization     0.191708                      
system.ruby.network.routers05.throttle0.msg_count.Request_Control::2      1963740                      
system.ruby.network.routers05.throttle0.msg_count.Response_Data::1      4353172                      
system.ruby.network.routers05.throttle0.msg_count.Response_Control::1      2388685                      
system.ruby.network.routers05.throttle0.msg_bytes.Request_Control::2     15709920                      
system.ruby.network.routers05.throttle0.msg_bytes.Response_Data::1    313428384                      
system.ruby.network.routers05.throttle0.msg_bytes.Response_Control::1     19109480                      
system.ruby.network.routers05.throttle1.link_utilization     0.210800                      
system.ruby.network.routers05.throttle1.msg_count.Control::0      4353202                      
system.ruby.network.routers05.throttle1.msg_count.Response_Data::1           26                      
system.ruby.network.routers05.throttle1.msg_count.Response_Control::1         1062                      
system.ruby.network.routers05.throttle1.msg_count.Response_Control::2      4353193                      
system.ruby.network.routers05.throttle1.msg_count.Writeback_Data::0      2388227                      
system.ruby.network.routers05.throttle1.msg_count.Writeback_Data::1      1962664                      
system.ruby.network.routers05.throttle1.msg_count.Writeback_Control::0          386                      
system.ruby.network.routers05.throttle1.msg_bytes.Control::0     34825616                      
system.ruby.network.routers05.throttle1.msg_bytes.Response_Data::1         1872                      
system.ruby.network.routers05.throttle1.msg_bytes.Response_Control::1         8496                      
system.ruby.network.routers05.throttle1.msg_bytes.Response_Control::2     34825544                      
system.ruby.network.routers05.throttle1.msg_bytes.Writeback_Data::0    171952344                      
system.ruby.network.routers05.throttle1.msg_bytes.Writeback_Data::1    141311808                      
system.ruby.network.routers05.throttle1.msg_bytes.Writeback_Control::0         3088                      
system.ruby.network.routers06.throttle0.link_utilization     0.070398                      
system.ruby.network.routers06.throttle0.msg_count.Request_Control::2       775438                      
system.ruby.network.routers06.throttle0.msg_count.Response_Data::1      1598709                      
system.ruby.network.routers06.throttle0.msg_count.Response_Control::1       821376                      
system.ruby.network.routers06.throttle0.msg_bytes.Request_Control::2      6203504                      
system.ruby.network.routers06.throttle0.msg_bytes.Response_Data::1    115107048                      
system.ruby.network.routers06.throttle0.msg_bytes.Response_Control::1      6571008                      
system.ruby.network.routers06.throttle1.link_utilization     0.043202                      
system.ruby.network.routers06.throttle1.msg_count.Control::0      1598710                      
system.ruby.network.routers06.throttle1.msg_count.Response_Data::1         5576                      
system.ruby.network.routers06.throttle1.msg_count.Response_Control::1       175908                      
system.ruby.network.routers06.throttle1.msg_count.Response_Control::2      1593884                      
system.ruby.network.routers06.throttle1.msg_count.Writeback_Data::0        24880                      
system.ruby.network.routers06.throttle1.msg_count.Writeback_Data::1       596741                      
system.ruby.network.routers06.throttle1.msg_count.Writeback_Control::0       796494                      
system.ruby.network.routers06.throttle1.msg_bytes.Control::0     12789680                      
system.ruby.network.routers06.throttle1.msg_bytes.Response_Data::1       401472                      
system.ruby.network.routers06.throttle1.msg_bytes.Response_Control::1      1407264                      
system.ruby.network.routers06.throttle1.msg_bytes.Response_Control::2     12751072                      
system.ruby.network.routers06.throttle1.msg_bytes.Writeback_Data::0      1791360                      
system.ruby.network.routers06.throttle1.msg_bytes.Writeback_Data::1     42965352                      
system.ruby.network.routers06.throttle1.msg_bytes.Writeback_Control::0      6371952                      
system.ruby.network.routers07.throttle0.link_utilization     0.071011                      
system.ruby.network.routers07.throttle0.msg_count.Request_Control::2      1106142                      
system.ruby.network.routers07.throttle0.msg_count.Response_Data::1      1615080                      
system.ruby.network.routers07.throttle0.msg_count.Response_Control::1       482548                      
system.ruby.network.routers07.throttle0.msg_bytes.Request_Control::2      8849136                      
system.ruby.network.routers07.throttle0.msg_bytes.Response_Data::1    116285760                      
system.ruby.network.routers07.throttle0.msg_bytes.Response_Control::1      3860384                      
system.ruby.network.routers07.throttle1.link_utilization     0.039004                      
system.ruby.network.routers07.throttle1.msg_count.Control::0      1615081                      
system.ruby.network.routers07.throttle1.msg_count.Response_Data::1         1650                      
system.ruby.network.routers07.throttle1.msg_count.Response_Control::1       549451                      
system.ruby.network.routers07.throttle1.msg_count.Response_Control::2      1083482                      
system.ruby.network.routers07.throttle1.msg_count.Writeback_Data::0        13560                      
system.ruby.network.routers07.throttle1.msg_count.Writeback_Data::1       555864                      
system.ruby.network.routers07.throttle1.msg_count.Writeback_Control::0       468986                      
system.ruby.network.routers07.throttle1.msg_bytes.Control::0     12920648                      
system.ruby.network.routers07.throttle1.msg_bytes.Response_Data::1       118800                      
system.ruby.network.routers07.throttle1.msg_bytes.Response_Control::1      4395608                      
system.ruby.network.routers07.throttle1.msg_bytes.Response_Control::2      8667856                      
system.ruby.network.routers07.throttle1.msg_bytes.Writeback_Data::0       976320                      
system.ruby.network.routers07.throttle1.msg_bytes.Writeback_Data::1     40022208                      
system.ruby.network.routers07.throttle1.msg_bytes.Writeback_Control::0      3751888                      
system.ruby.network.routers08.throttle0.link_utilization     0.071258                      
system.ruby.network.routers08.throttle0.msg_count.Request_Control::2      1173369                      
system.ruby.network.routers08.throttle0.msg_count.Response_Data::1      1620374                      
system.ruby.network.routers08.throttle0.msg_count.Response_Control::1       423659                      
system.ruby.network.routers08.throttle0.msg_bytes.Request_Control::2      9386952                      
system.ruby.network.routers08.throttle0.msg_bytes.Response_Data::1    116666928                      
system.ruby.network.routers08.throttle0.msg_bytes.Response_Control::1      3389272                      
system.ruby.network.routers08.throttle1.link_utilization     0.033962                      
system.ruby.network.routers08.throttle1.msg_count.Control::0      1620375                      
system.ruby.network.routers08.throttle1.msg_count.Response_Data::1         4015                      
system.ruby.network.routers08.throttle1.msg_count.Response_Control::1       763428                      
system.ruby.network.routers08.throttle1.msg_count.Response_Control::2      1091167                      
system.ruby.network.routers08.throttle1.msg_count.Writeback_Data::0        13196                      
system.ruby.network.routers08.throttle1.msg_count.Writeback_Data::1       407932                      
system.ruby.network.routers08.throttle1.msg_count.Writeback_Control::0       410461                      
system.ruby.network.routers08.throttle1.msg_bytes.Control::0     12963000                      
system.ruby.network.routers08.throttle1.msg_bytes.Response_Data::1       289080                      
system.ruby.network.routers08.throttle1.msg_bytes.Response_Control::1      6107424                      
system.ruby.network.routers08.throttle1.msg_bytes.Response_Control::2      8729336                      
system.ruby.network.routers08.throttle1.msg_bytes.Writeback_Data::0       950112                      
system.ruby.network.routers08.throttle1.msg_bytes.Writeback_Data::1     29371104                      
system.ruby.network.routers08.throttle1.msg_bytes.Writeback_Control::0      3283688                      
system.ruby.network.routers09.throttle0.link_utilization     0.071136                      
system.ruby.network.routers09.throttle0.msg_count.Request_Control::2      1106472                      
system.ruby.network.routers09.throttle0.msg_count.Response_Data::1      1616275                      
system.ruby.network.routers09.throttle0.msg_count.Response_Control::1       499722                      
system.ruby.network.routers09.throttle0.msg_bytes.Request_Control::2      8851776                      
system.ruby.network.routers09.throttle0.msg_bytes.Response_Data::1    116371800                      
system.ruby.network.routers09.throttle0.msg_bytes.Response_Control::1      3997776                      
system.ruby.network.routers09.throttle1.link_utilization     0.034546                      
system.ruby.network.routers09.throttle1.msg_count.Control::0      1616276                      
system.ruby.network.routers09.throttle1.msg_count.Response_Data::1        33576                      
system.ruby.network.routers09.throttle1.msg_count.Response_Control::1       701305                      
system.ruby.network.routers09.throttle1.msg_count.Response_Control::2      1103253                      
system.ruby.network.routers09.throttle1.msg_count.Writeback_Data::0        15779                      
system.ruby.network.routers09.throttle1.msg_count.Writeback_Data::1       388378                      
system.ruby.network.routers09.throttle1.msg_count.Writeback_Control::0       483941                      
system.ruby.network.routers09.throttle1.msg_bytes.Control::0     12930208                      
system.ruby.network.routers09.throttle1.msg_bytes.Response_Data::1      2417472                      
system.ruby.network.routers09.throttle1.msg_bytes.Response_Control::1      5610440                      
system.ruby.network.routers09.throttle1.msg_bytes.Response_Control::2      8826024                      
system.ruby.network.routers09.throttle1.msg_bytes.Writeback_Data::0      1136088                      
system.ruby.network.routers09.throttle1.msg_bytes.Writeback_Data::1     27963216                      
system.ruby.network.routers09.throttle1.msg_bytes.Writeback_Control::0      3871528                      
system.ruby.network.routers10.throttle0.link_utilization     0.765195                      
system.ruby.network.routers10.throttle0.msg_count.Control::0     10803644                      
system.ruby.network.routers10.throttle0.msg_count.Response_Data::1      9212909                      
system.ruby.network.routers10.throttle0.msg_count.Response_Control::1     11341666                      
system.ruby.network.routers10.throttle0.msg_count.Response_Control::2      9224979                      
system.ruby.network.routers10.throttle0.msg_count.Writeback_Data::0      2455642                      
system.ruby.network.routers10.throttle0.msg_count.Writeback_Data::1      3911579                      
system.ruby.network.routers10.throttle0.msg_count.Writeback_Control::0      2160268                      
system.ruby.network.routers10.throttle0.msg_bytes.Control::0     86429152                      
system.ruby.network.routers10.throttle0.msg_bytes.Response_Data::1    663329448                      
system.ruby.network.routers10.throttle0.msg_bytes.Response_Control::1     90733328                      
system.ruby.network.routers10.throttle0.msg_bytes.Response_Control::2     73799832                      
system.ruby.network.routers10.throttle0.msg_bytes.Writeback_Data::0    176806224                      
system.ruby.network.routers10.throttle0.msg_bytes.Writeback_Data::1    281633688                      
[...]
system.ruby.L1Cache_Controller.S.L0_Invalidate_Else |           6      0.00%      0.00% |         534      0.06%      0.06% |      321900     33.66%     33.72% |      321825     33.65%     67.37% |      312065     32.63%    100.00%
system.ruby.L1Cache_Controller.S.L0_Invalidate_Else::total       956330                      
system.ruby.L1Cache_Controller.SS.Load   |           2      0.03%      0.03% |        2010     26.08%     26.11% |         807     10.47%     36.58% |         367      4.76%     41.34% |        4520     58.66%    100.00%
system.ruby.L1Cache_Controller.SS.Load::total         7706                      
system.ruby.L1Cache_Controller.SS.Inv    |          16      0.00%      0.00% |         545      0.06%      0.06% |      321913     33.55%     33.60% |      322007     33.56%     67.16% |      315140     32.84%    100.00%
system.ruby.L1Cache_Controller.SS.Inv::total       959621                      
system.ruby.L1Cache_Controller.SS.L1_Replacement |           0      0.00%      0.00% |        7346      1.12%      1.12% |      217157     33.21%     34.33% |      215240     32.92%     67.25% |      214118     32.75%    100.00%
system.ruby.L1Cache_Controller.SS.L1_Replacement::total       653861                      
system.ruby.L1Cache_Controller.E.WriteBack |         623      0.02%      0.02% |     1390621     33.86%     33.88% |     1021534     24.88%     58.76% |      815167     19.85%     78.61% |      878537     21.39%    100.00%
system.ruby.L1Cache_Controller.E.WriteBack::total      4106482                      
system.ruby.L1Cache_Controller.E.L0_Invalidate_Own |        7060     10.86%     10.86% |       22485     34.60%     45.47% |       11326     17.43%     62.90% |       10860     16.71%     79.61% |       13250     20.39%    100.00%
system.ruby.L1Cache_Controller.E.L0_Invalidate_Own::total        64981                      
system.ruby.L1Cache_Controller.E.L0_Invalidate_Else |        1204      0.18%      0.18% |      174722     26.28%     26.46% |       35164      5.29%     31.75% |      250360     37.66%     69.41% |      203389     30.59%    100.00%
system.ruby.L1Cache_Controller.E.L0_Invalidate_Else::total       664839                      
system.ruby.L1Cache_Controller.EE.Load   |          27     29.35%     29.35% |           0      0.00%     29.35% |          11     11.96%     41.30% |           1      1.09%     42.39% |          53     57.61%    100.00%
system.ruby.L1Cache_Controller.EE.Load::total           92                      
system.ruby.L1Cache_Controller.EE.Inv    |        1046      0.16%      0.16% |      172410     26.47%     26.63% |       34158      5.25%     31.88% |      248130     38.10%     69.98% |      195494     30.02%    100.00%
system.ruby.L1Cache_Controller.EE.Inv::total       651238                      
system.ruby.L1Cache_Controller.EE.L1_Replacement |        5650      8.99%      8.99% |       22269     35.43%     44.42% |       11148     17.73%     62.15% |       10731     17.07%     79.22% |       13061     20.78%    100.00%
system.ruby.L1Cache_Controller.EE.L1_Replacement::total        62859                      
system.ruby.L1Cache_Controller.EE.Fwd_GETX |           2    100.00%    100.00% |           0      0.00%    100.00% |           0      0.00%    100.00% |           0      0.00%    100.00% |           0      0.00%    100.00%
system.ruby.L1Cache_Controller.EE.Fwd_GETX::total            2                      
system.ruby.L1Cache_Controller.EE.Fwd_GETS |           4      0.03%      0.03% |        2130     16.85%     16.88% |         811      6.41%     23.29% |        1999     15.81%     39.10% |        7699     60.90%    100.00%
system.ruby.L1Cache_Controller.EE.Fwd_GETS::total        12643                      
system.ruby.L1Cache_Controller.M.WriteBack |     4332300     86.20%     86.20% |      193388      3.85%     90.05% |      169142      3.37%     93.41% |      160955      3.20%     96.62% |      170020      3.38%    100.00%
system.ruby.L1Cache_Controller.M.WriteBack::total      5025805                      
system.ruby.L1Cache_Controller.M.L0_Invalidate_Own |        5594     39.81%     39.81% |        2103     14.97%     54.78% |        1972     14.04%     68.82% |        2076     14.78%     83.59% |        2305     16.41%    100.00%
system.ruby.L1Cache_Controller.M.L0_Invalidate_Own::total        14050                      
system.ruby.L1Cache_Controller.M.L0_Invalidate_Else |        5892     23.93%     23.93% |        4977     20.21%     44.14% |        4799     19.49%     63.63% |        4731     19.21%     82.85% |        4224     17.15%    100.00%
system.ruby.L1Cache_Controller.M.L0_Invalidate_Else::total        24623                      
system.ruby.L1Cache_Controller.MM.Load   |          88      0.01%      0.01% |      194984     27.89%     27.91% |      170458     24.38%     52.29% |      162316     23.22%     75.51% |      171193     24.49%    100.00%
system.ruby.L1Cache_Controller.MM.Load::total       699039                      
system.ruby.L1Cache_Controller.MM.Store  |         135    100.00%    100.00% |           0      0.00%    100.00% |           0      0.00%    100.00% |           0      0.00%    100.00% |           0      0.00%    100.00%
system.ruby.L1Cache_Controller.MM.Store::total          135                      
system.ruby.L1Cache_Controller.MM.Inv    |     1962664     50.18%     50.18% |      596739     15.26%     65.43% |      555862     14.21%     79.64% |      407932     10.43%     90.07% |      388375      9.93%    100.00%
system.ruby.L1Cache_Controller.MM.Inv::total      3911572                      
system.ruby.L1Cache_Controller.MM.L1_Replacement |     2382963     52.34%     52.34% |      799105     17.55%     69.89% |      471398     10.35%     80.24% |      412926      9.07%     89.31% |      486659     10.69%    100.00%
system.ruby.L1Cache_Controller.MM.L1_Replacement::total      4553051                      
system.ruby.L1Cache_Controller.MM.Fwd_GETX |           0      0.00%      0.00% |           2     18.18%     18.18% |           4     36.36%     54.55% |           3     27.27%     81.82% |           2     18.18%    100.00%
system.ruby.L1Cache_Controller.MM.Fwd_GETX::total           11                      
system.ruby.L1Cache_Controller.MM.Fwd_GETS |           8      0.08%      0.08% |         657      6.72%      6.81% |          12      0.12%      6.93% |           7      0.07%      7.00% |        9088     93.00%    100.00%
system.ruby.L1Cache_Controller.MM.Fwd_GETS::total         9772                      
system.ruby.L1Cache_Controller.IS.Data_Exclusive |        9489      0.20%      0.20% |     1587828     32.83%     33.02% |     1068016     22.08%     55.10% |     1076390     22.25%     77.36% |     1095126     22.64%    100.00%
system.ruby.L1Cache_Controller.IS.Data_Exclusive::total      4836849                      
system.ruby.L1Cache_Controller.IS.DataS_fromL1 |          31      0.14%      0.14% |         564      2.52%      2.65% |        9895     44.14%     46.80% |        9263     41.33%     88.12% |        2662     11.88%    100.00%
system.ruby.L1Cache_Controller.IS.DataS_fromL1::total        22415                      
system.ruby.L1Cache_Controller.IS.Data_all_Acks |           9      0.00%      0.00% |        4826      0.31%      0.31% |      531599     33.67%     33.98% |      529208     33.52%     67.50% |      513023     32.50%    100.00%
system.ruby.L1Cache_Controller.IS.Data_all_Acks::total      1578665                      
system.ruby.L1Cache_Controller.IM.Data_all_Acks |     4343643     99.50%     99.50% |        5491      0.13%     99.62% |        5570      0.13%     99.75% |        5513      0.13%     99.87% |        5464      0.13%    100.00%
system.ruby.L1Cache_Controller.IM.Data_all_Acks::total      4365681                      
system.ruby.L1Cache_Controller.SM.Ack    |          42     91.30%     91.30% |           1      2.17%     93.48% |           1      2.17%     95.65% |           1      2.17%     97.83% |           1      2.17%    100.00%
system.ruby.L1Cache_Controller.SM.Ack::total           46                      
system.ruby.L1Cache_Controller.SM.Ack_all |          30     88.24%     88.24% |           1      2.94%     91.18% |           1      2.94%     94.12% |           1      2.94%     97.06% |           1      2.94%    100.00%
system.ruby.L1Cache_Controller.SM.Ack_all::total           34                      
system.ruby.L1Cache_Controller.M_I.Inv   |           0      0.00%      0.00% |           2     28.57%     28.57% |           2     28.57%     57.14% |           0      0.00%     57.14% |           3     42.86%    100.00%
system.ruby.L1Cache_Controller.M_I.Inv::total            7                      
system.ruby.L1Cache_Controller.M_I.WB_Ack |     2388613     51.75%     51.75% |      821372     17.79%     69.54% |      482544     10.45%     80.00% |      423657      9.18%     89.17% |      499717     10.83%    100.00%
system.ruby.L1Cache_Controller.M_I.WB_Ack::total      4615903                      
system.ruby.L1Cache_Controller.SINK_WB_ACK.WB_Ack |           0      0.00%      0.00% |           2     28.57%     28.57% |           2     28.57%     57.14% |           0      0.00%     57.14% |           3     42.86%    100.00%
system.ruby.L1Cache_Controller.SINK_WB_ACK.WB_Ack::total            7                      
system.ruby.L1Cache_Controller.S_IL0.L0_Invalidate_Own |           0      0.00%      0.00% |        6860      1.07%      1.07% |      217157     33.79%     34.85% |      213785     33.26%     68.12% |      204932     31.88%    100.00%
system.ruby.L1Cache_Controller.S_IL0.L0_Invalidate_Own::total       642734                      
system.ruby.L1Cache_Controller.S_IL0.L0_Invalidate_Else |           6      0.00%      0.00% |         534      0.06%      0.06% |      321900     33.66%     33.72% |      321825     33.65%     67.37% |      312065     32.63%    100.00%
system.ruby.L1Cache_Controller.S_IL0.L0_Invalidate_Else::total       956330                      
system.ruby.L1Cache_Controller.S_IL0.L0_Ack |           6      0.00%      0.00% |        7394      0.46%      0.46% |      539057     33.71%     34.17% |      535610     33.50%     67.67% |      516995     32.33%    100.00%
system.ruby.L1Cache_Controller.S_IL0.L0_Ack::total      1599062                      
system.ruby.L1Cache_Controller.E_IL0.WriteBack |           0      0.00%      0.00% |           9     33.33%     33.33% |           1      3.70%     37.04% |          14     51.85%     88.89% |           3     11.11%    100.00%
system.ruby.L1Cache_Controller.E_IL0.WriteBack::total           27                      
system.ruby.L1Cache_Controller.E_IL0.L0_DataAck |        1535     51.88%     51.88% |         389     13.15%     65.02% |         361     12.20%     77.22% |         345     11.66%     88.88% |         329     11.12%    100.00%
system.ruby.L1Cache_Controller.E_IL0.L0_DataAck::total         2959                      
system.ruby.L1Cache_Controller.E_IL0.L0_Invalidate_Own |        7060     10.86%     10.86% |       22485     34.60%     45.47% |       11326     17.43%     62.90% |       10860     16.71%     79.61% |       13250     20.39%    100.00%
system.ruby.L1Cache_Controller.E_IL0.L0_Invalidate_Own::total        64981                      
system.ruby.L1Cache_Controller.E_IL0.L0_Invalidate_Else |        1204      0.18%      0.18% |      174722     26.28%     26.46% |       35164      5.29%     31.75% |      250360     37.66%     69.41% |      203389     30.59%    100.00%
system.ruby.L1Cache_Controller.E_IL0.L0_Invalidate_Else::total       664839                      
system.ruby.L1Cache_Controller.E_IL0.L0_Ack |        6729      0.93%      0.93% |      196809     27.08%     28.00% |       46128      6.35%     34.35% |      260861     35.89%     70.24% |      216307     29.76%    100.00%
system.ruby.L1Cache_Controller.E_IL0.L0_Ack::total       726834                      
system.ruby.L1Cache_Controller.M_IL0.WriteBack |           0      0.00%      0.00% |           0      0.00%      0.00% |           1    100.00%    100.00% |           0      0.00%    100.00% |           0      0.00%    100.00%
system.ruby.L1Cache_Controller.M_IL0.WriteBack::total            1                      
system.ruby.L1Cache_Controller.M_IL0.L0_DataAck |       11440     36.21%     36.21% |        5112     16.18%     52.39% |        4990     15.79%     68.18% |        5045     15.97%     84.15% |        5009     15.85%    100.00%
system.ruby.L1Cache_Controller.M_IL0.L0_DataAck::total        31596                      
system.ruby.L1Cache_Controller.M_IL0.L0_Invalidate_Own |        5594     39.81%     39.81% |        2103     14.97%     54.78% |        1972     14.04%     68.82% |        2076     14.78%     83.59% |        2305     16.41%    100.00%
system.ruby.L1Cache_Controller.M_IL0.L0_Invalidate_Own::total        14050                      
system.ruby.L1Cache_Controller.M_IL0.L0_Invalidate_Else |        5892     23.93%     23.93% |        4977     20.21%     44.14% |        4799     19.49%     63.63% |        4731     19.21%     82.85% |        4224     17.15%    100.00%
system.ruby.L1Cache_Controller.M_IL0.L0_Invalidate_Else::total        24623                      
system.ruby.L1Cache_Controller.M_IL0.L0_Ack |          46      0.65%      0.65% |        1968     27.81%     28.46% |        1780     25.16%     53.62% |        1762     24.90%     78.52% |        1520     21.48%    100.00%
system.ruby.L1Cache_Controller.M_IL0.L0_Ack::total         7076                      
system.ruby.L1Cache_Controller.MM_IL0.Inv |           0      0.00%      0.00% |           9     33.33%     33.33% |           2      7.41%     40.74% |          14     51.85%     92.59% |           2      7.41%    100.00%
system.ruby.L1Cache_Controller.MM_IL0.Inv::total           27                      
system.ruby.L1Cache_Controller.MM_IL0.Fwd_GETS |           0      0.00%      0.00% |           0      0.00%      0.00% |           0      0.00%      0.00% |           0      0.00%      0.00% |           1    100.00%    100.00%
system.ruby.L1Cache_Controller.MM_IL0.Fwd_GETS::total            1                      
system.ruby.L1Cache_Controller.MM_IL0.L0_Ack |           0      0.00%      0.00% |           9     32.14%     32.14% |           2      7.14%     39.29% |          14     50.00%     89.29% |           3     10.71%    100.00%
system.ruby.L1Cache_Controller.MM_IL0.L0_Ack::total           28                      
system.ruby.L2Cache_Controller.L1_GETS        6449183      0.00%      0.00%
system.ruby.L2Cache_Controller.L1_GETX        4365892      0.00%      0.00%
system.ruby.L2Cache_Controller.L1_UPGRADE           34      0.00%      0.00%
system.ruby.L2Cache_Controller.L1_PUTX        4615903      0.00%      0.00%
system.ruby.L2Cache_Controller.L1_PUTX_old           14      0.00%      0.00%
system.ruby.L2Cache_Controller.L2_Replacement      1782343      0.00%      0.00%
system.ruby.L2Cache_Controller.L2_Replacement_clean      7368250      0.00%      0.00%
system.ruby.L2Cache_Controller.Mem_Data       9190494      0.00%      0.00%
system.ruby.L2Cache_Controller.Mem_Ack        9150558      0.00%      0.00%
system.ruby.L2Cache_Controller.WB_Data        1995279      0.00%      0.00%
system.ruby.L2Cache_Controller.WB_Data_clean      1938715      0.00%      0.00%
system.ruby.L2Cache_Controller.Ack            1024501      0.00%      0.00%
system.ruby.L2Cache_Controller.Ack_all        1166607      0.00%      0.00%
system.ruby.L2Cache_Controller.Unblock          22415      0.00%      0.00%
system.ruby.L2Cache_Controller.Exclusive_Unblock      9202564      0.00%      0.00%
system.ruby.L2Cache_Controller.NP.L1_GETS      4825867      0.00%      0.00%
system.ruby.L2Cache_Controller.NP.L1_GETX      4364627      0.00%      0.00%
system.ruby.L2Cache_Controller.NP.L1_PUTX_old            7      0.00%      0.00%
system.ruby.L2Cache_Controller.SS.L1_GETS        73018      0.00%      0.00%
system.ruby.L2Cache_Controller.SS.L1_UPGRADE           34      0.00%      0.00%
system.ruby.L2Cache_Controller.SS.L2_Replacement        12766      0.00%      0.00%
system.ruby.L2Cache_Controller.SS.L2_Replacement_clean       502603      0.00%      0.00%
system.ruby.L2Cache_Controller.M.L1_GETS       519826      0.00%      0.00%
system.ruby.L2Cache_Controller.M.L1_GETX         1041      0.00%      0.00%
system.ruby.L2Cache_Controller.M.L2_Replacement      1765947      0.00%      0.00%
system.ruby.L2Cache_Controller.M.L2_Replacement_clean      2306425      0.00%      0.00%
system.ruby.L2Cache_Controller.MT.L1_GETS        22415      0.00%      0.00%
system.ruby.L2Cache_Controller.MT.L1_GETX           13      0.00%      0.00%
system.ruby.L2Cache_Controller.MT.L1_PUTX      4615903      0.00%      0.00%
system.ruby.L2Cache_Controller.MT.L2_Replacement         3630      0.00%      0.00%
system.ruby.L2Cache_Controller.MT.L2_Replacement_clean      4559187      0.00%      0.00%
system.ruby.L2Cache_Controller.M_I.L1_GETS          789      0.00%      0.00%
system.ruby.L2Cache_Controller.M_I.L1_GETX          209      0.00%      0.00%
system.ruby.L2Cache_Controller.M_I.Mem_Ack      9150558      0.00%      0.00%
system.ruby.L2Cache_Controller.MT_I.WB_Data          232      0.00%      0.00%
system.ruby.L2Cache_Controller.MT_I.WB_Data_clean         2039      0.00%      0.00%
system.ruby.L2Cache_Controller.MT_I.Ack_all         1359      0.00%      0.00%
system.ruby.L2Cache_Controller.MCT_I.L1_GETS            1      0.00%      0.00%
system.ruby.L2Cache_Controller.MCT_I.L1_PUTX_old            7      0.00%      0.00%
system.ruby.L2Cache_Controller.MCT_I.WB_Data      1982378      0.00%      0.00%
system.ruby.L2Cache_Controller.MCT_I.WB_Data_clean      1926930      0.00%      0.00%
system.ruby.L2Cache_Controller.MCT_I.Ack_all       649879      0.00%      0.00%
system.ruby.L2Cache_Controller.I_I.Ack         997954      0.00%      0.00%
system.ruby.L2Cache_Controller.I_I.Ack_all       502603      0.00%      0.00%
system.ruby.L2Cache_Controller.S_I.Ack          26547      0.00%      0.00%
system.ruby.L2Cache_Controller.S_I.Ack_all        12766      0.00%      0.00%
system.ruby.L2Cache_Controller.ISS.L1_GETS       508844      0.00%      0.00%
system.ruby.L2Cache_Controller.ISS.L2_Replacement_clean           21      0.00%      0.00%
system.ruby.L2Cache_Controller.ISS.Mem_Data      4317023      0.00%      0.00%
system.ruby.L2Cache_Controller.IS.L1_GETS       487959      0.00%      0.00%
system.ruby.L2Cache_Controller.IS.L2_Replacement_clean            1      0.00%      0.00%
system.ruby.L2Cache_Controller.IS.Mem_Data       508844      0.00%      0.00%
system.ruby.L2Cache_Controller.IM.L1_GETX            2      0.00%      0.00%
system.ruby.L2Cache_Controller.IM.L2_Replacement_clean            4      0.00%      0.00%
system.ruby.L2Cache_Controller.IM.Mem_Data      4364627      0.00%      0.00%
system.ruby.L2Cache_Controller.SS_MB.Exclusive_Unblock           34      0.00%      0.00%
system.ruby.L2Cache_Controller.MT_MB.L1_GETS          769      0.00%      0.00%
system.ruby.L2Cache_Controller.MT_MB.L2_Replacement_clean            9      0.00%      0.00%
system.ruby.L2Cache_Controller.MT_MB.Exclusive_Unblock      9202530      0.00%      0.00%
system.ruby.L2Cache_Controller.MT_IIB.L1_GETS         9683      0.00%      0.00%
system.ruby.L2Cache_Controller.MT_IIB.WB_Data        11847      0.00%      0.00%
system.ruby.L2Cache_Controller.MT_IIB.WB_Data_clean         9597      0.00%      0.00%
system.ruby.L2Cache_Controller.MT_IIB.Unblock          971      0.00%      0.00%
system.ruby.L2Cache_Controller.MT_IB.WB_Data          822      0.00%      0.00%
system.ruby.L2Cache_Controller.MT_IB.WB_Data_clean          149      0.00%      0.00%
system.ruby.L2Cache_Controller.MT_SB.L1_GETS           12      0.00%      0.00%
system.ruby.L2Cache_Controller.MT_SB.Unblock        21444      0.00%      0.00%

---------- End Simulation Statistics   ----------
