
---------- Begin Simulation Statistics ----------
sim_seconds                                  0.301145                       # Number of seconds simulated
sim_ticks                                301145063500                       # Number of ticks simulated
final_tick                               301145063500                       # Number of ticks from beginning of simulation (restored from checkpoints and never reset)
sim_freq                                 1000000000000                       # Frequency of simulated ticks
host_inst_rate                                 109285                       # Simulator instruction rate (inst/s)
host_op_rate                                   298478                       # Simulator op (including micro ops) rate (op/s)
host_tick_rate                              189162981                       # Simulator tick rate (ticks/s)
host_mem_usage                                 811400                       # Number of bytes of host memory used
host_seconds                                  1591.99                       # Real time elapsed on the host
sim_insts                                   173980809                       # Number of instructions simulated
sim_ops                                     475172788                       # Number of ops (including micro ops) simulated
system.voltage_domain.voltage                       1                       # Voltage in Volts
system.clk_domain.clock                          1000                       # Clock period in ticks
system.mem_ctrls.bytes_read::ruby.dir_cntrl0     15382848                       # Number of bytes read from this memory
system.mem_ctrls.bytes_read::total           15382848                       # Number of bytes read from this memory
system.mem_ctrls.bytes_written::ruby.dir_cntrl0      9851456                       # Number of bytes written to this memory
system.mem_ctrls.bytes_written::total         9851456                       # Number of bytes written to this memory
system.mem_ctrls.num_reads::ruby.dir_cntrl0       240357                       # Number of read requests responded to by this memory
system.mem_ctrls.num_reads::total              240357                       # Number of read requests responded to by this memory
system.mem_ctrls.num_writes::ruby.dir_cntrl0       153929                       # Number of write requests responded to by this memory
system.mem_ctrls.num_writes::total             153929                       # Number of write requests responded to by this memory
system.mem_ctrls.bw_read::ruby.dir_cntrl0     51081189                       # Total read bandwidth from this memory (bytes/s)
system.mem_ctrls.bw_read::total              51081189                       # Total read bandwidth from this memory (bytes/s)
system.mem_ctrls.bw_write::ruby.dir_cntrl0     32713324                       # Write bandwidth from this memory (bytes/s)
system.mem_ctrls.bw_write::total             32713324                       # Write bandwidth from this memory (bytes/s)
system.mem_ctrls.bw_total::ruby.dir_cntrl0     83794513                       # Total bandwidth to/from this memory (bytes/s)
system.mem_ctrls.bw_total::total             83794513                       # Total bandwidth to/from this memory (bytes/s)
system.mem_ctrls.readReqs                      240357                       # Number of read requests accepted
system.mem_ctrls.writeReqs                     153929                       # Number of write requests accepted
system.mem_ctrls.readBursts                    240357                       # Number of DRAM read bursts, including those serviced by the write queue
system.mem_ctrls.writeBursts                   153929                       # Number of DRAM write bursts, including those merged in the write queue
system.mem_ctrls.bytesReadDRAM               15382464                       # Total number of bytes read from DRAM
system.mem_ctrls.bytesReadWrQ                     384                       # Total number of bytes read from write queue
system.mem_ctrls.bytesWritten                 9849920                       # Total number of bytes written to DRAM
system.mem_ctrls.bytesReadSys                15382848                       # Total read bytes from the system interface side
system.mem_ctrls.bytesWrittenSys              9851456                       # Total written bytes from the system interface side
system.mem_ctrls.servicedByWrQ                      6                       # Number of DRAM read bursts serviced by the write queue
system.mem_ctrls.mergedWrBursts                     0                       # Number of DRAM write bursts merged with an existing one
system.mem_ctrls.neitherReadNorWriteReqs            0                       # Number of requests that are neither read nor write
system.mem_ctrls.perBankRdBursts::0             14989                       # Per bank write bursts
system.mem_ctrls.perBankRdBursts::1             15014                       # Per bank write bursts
system.mem_ctrls.perBankRdBursts::2             14969                       # Per bank write bursts
system.mem_ctrls.perBankRdBursts::3             14890                       # Per bank write bursts
system.mem_ctrls.perBankRdBursts::4             15126                       # Per bank write bursts
system.mem_ctrls.perBankRdBursts::5             14888                       # Per bank write bursts
system.mem_ctrls.perBankRdBursts::6             14630                       # Per bank write bursts
system.mem_ctrls.perBankRdBursts::7             14661                       # Per bank write bursts
system.mem_ctrls.perBankRdBursts::8             14940                       # Per bank write bursts
system.mem_ctrls.perBankRdBursts::9             15189                       # Per bank write bursts
system.mem_ctrls.perBankRdBursts::10            15328                       # Per bank write bursts
system.mem_ctrls.perBankRdBursts::11            15380                       # Per bank write bursts
system.mem_ctrls.perBankRdBursts::12            15190                       # Per bank write bursts
system.mem_ctrls.perBankRdBursts::13            15101                       # Per bank write bursts
system.mem_ctrls.perBankRdBursts::14            15016                       # Per bank write bursts
system.mem_ctrls.perBankRdBursts::15            15040                       # Per bank write bursts
system.mem_ctrls.perBankWrBursts::0              9635                       # Per bank write bursts
system.mem_ctrls.perBankWrBursts::1              9674                       # Per bank write bursts
system.mem_ctrls.perBankWrBursts::2              9631                       # Per bank write bursts
system.mem_ctrls.perBankWrBursts::3              9612                       # Per bank write bursts
system.mem_ctrls.perBankWrBursts::4              9710                       # Per bank write bursts
system.mem_ctrls.perBankWrBursts::5              9456                       # Per bank write bursts
system.mem_ctrls.perBankWrBursts::6              8983                       # Per bank write bursts
system.mem_ctrls.perBankWrBursts::7              9439                       # Per bank write bursts
system.mem_ctrls.perBankWrBursts::8              9481                       # Per bank write bursts
system.mem_ctrls.perBankWrBursts::9              9724                       # Per bank write bursts
system.mem_ctrls.perBankWrBursts::10             9854                       # Per bank write bursts
system.mem_ctrls.perBankWrBursts::11             9913                       # Per bank write bursts
system.mem_ctrls.perBankWrBursts::12             9755                       # Per bank write bursts
system.mem_ctrls.perBankWrBursts::13             9714                       # Per bank write bursts
system.mem_ctrls.perBankWrBursts::14             9710                       # Per bank write bursts
system.mem_ctrls.perBankWrBursts::15             9614                       # Per bank write bursts
system.mem_ctrls.numRdRetry                         0                       # Number of times read queue was full causing retry
system.mem_ctrls.numWrRetry                         0                       # Number of times write queue was full causing retry
system.mem_ctrls.totGap                  301144969000                       # Total gap between requests
system.mem_ctrls.readPktSize::0                     0                       # Read request sizes (log2)
system.mem_ctrls.readPktSize::1                     0                       # Read request sizes (log2)
system.mem_ctrls.readPktSize::2                     0                       # Read request sizes (log2)
system.mem_ctrls.readPktSize::3                     0                       # Read request sizes (log2)
system.mem_ctrls.readPktSize::4                     0                       # Read request sizes (log2)
system.mem_ctrls.readPktSize::5                     0                       # Read request sizes (log2)
system.mem_ctrls.readPktSize::6                240357                       # Read request sizes (log2)
system.mem_ctrls.writePktSize::0                    0                       # Write request sizes (log2)
system.mem_ctrls.writePktSize::1                    0                       # Write request sizes (log2)
system.mem_ctrls.writePktSize::2                    0                       # Write request sizes (log2)
system.mem_ctrls.writePktSize::3                    0                       # Write request sizes (log2)
system.mem_ctrls.writePktSize::4                    0                       # Write request sizes (log2)
system.mem_ctrls.writePktSize::5                    0                       # Write request sizes (log2)
system.mem_ctrls.writePktSize::6               153929                       # Write request sizes (log2)
system.mem_ctrls.rdQLenPdf::0                  240347                       # What read queue length does an incoming req see
system.mem_ctrls.rdQLenPdf::1                       4                       # What read queue length does an incoming req see
system.mem_ctrls.rdQLenPdf::2                       0                       # What read queue length does an incoming req see
system.mem_ctrls.rdQLenPdf::3                       0                       # What read queue length does an incoming req see
system.mem_ctrls.rdQLenPdf::4                       0                       # What read queue length does an incoming req see
system.mem_ctrls.rdQLenPdf::5                       0                       # What read queue length does an incoming req see
system.mem_ctrls.rdQLenPdf::6                       0                       # What read queue length does an incoming req see
system.mem_ctrls.rdQLenPdf::7                       0                       # What read queue length does an incoming req see
system.mem_ctrls.rdQLenPdf::8                       0                       # What read queue length does an incoming req see
system.mem_ctrls.rdQLenPdf::9                       0                       # What read queue length does an incoming req see
system.mem_ctrls.rdQLenPdf::10                      0                       # What read queue length does an incoming req see
system.mem_ctrls.rdQLenPdf::11                      0                       # What read queue length does an incoming req see
system.mem_ctrls.rdQLenPdf::12                      0                       # What read queue length does an incoming req see
system.mem_ctrls.rdQLenPdf::13                      0                       # What read queue length does an incoming req see
system.mem_ctrls.rdQLenPdf::14                      0                       # What read queue length does an incoming req see
system.mem_ctrls.rdQLenPdf::15                      0                       # What read queue length does an incoming req see
system.mem_ctrls.rdQLenPdf::16                      0                       # What read queue length does an incoming req see
system.mem_ctrls.rdQLenPdf::17                      0                       # What read queue length does an incoming req see
system.mem_ctrls.rdQLenPdf::18                      0                       # What read queue length does an incoming req see
system.mem_ctrls.rdQLenPdf::19                      0                       # What read queue length does an incoming req see
system.mem_ctrls.rdQLenPdf::20                      0                       # What read queue length does an incoming req see
system.mem_ctrls.rdQLenPdf::21                      0                       # What read queue length does an incoming req see
system.mem_ctrls.rdQLenPdf::22                      0                       # What read queue length does an incoming req see
system.mem_ctrls.rdQLenPdf::23                      0                       # What read queue length does an incoming req see
system.mem_ctrls.rdQLenPdf::24                      0                       # What read queue length does an incoming req see
system.mem_ctrls.rdQLenPdf::25                      0                       # What read queue length does an incoming req see
system.mem_ctrls.rdQLenPdf::26                      0                       # What read queue length does an incoming req see
system.mem_ctrls.rdQLenPdf::27                      0                       # What read queue length does an incoming req see
system.mem_ctrls.rdQLenPdf::28                      0                       # What read queue length does an incoming req see
system.mem_ctrls.rdQLenPdf::29                      0                       # What read queue length does an incoming req see
system.mem_ctrls.rdQLenPdf::30                      0                       # What read queue length does an incoming req see
system.mem_ctrls.rdQLenPdf::31                      0                       # What read queue length does an incoming req see
system.mem_ctrls.wrQLenPdf::0                       1                       # What write queue length does an incoming req see
system.mem_ctrls.wrQLenPdf::1                       1                       # What write queue length does an incoming req see
system.mem_ctrls.wrQLenPdf::2                       1                       # What write queue length does an incoming req see
system.mem_ctrls.wrQLenPdf::3                       1                       # What write queue length does an incoming req see
system.mem_ctrls.wrQLenPdf::4                       1                       # What write queue length does an incoming req see
system.mem_ctrls.wrQLenPdf::5                       1                       # What write queue length does an incoming req see
system.mem_ctrls.wrQLenPdf::6                       1                       # What write queue length does an incoming req see
system.mem_ctrls.wrQLenPdf::7                       1                       # What write queue length does an incoming req see
system.mem_ctrls.wrQLenPdf::8                       1                       # What write queue length does an incoming req see
system.mem_ctrls.wrQLenPdf::9                       1                       # What write queue length does an incoming req see
system.mem_ctrls.wrQLenPdf::10                      1                       # What write queue length does an incoming req see
system.mem_ctrls.wrQLenPdf::11                      1                       # What write queue length does an incoming req see
system.mem_ctrls.wrQLenPdf::12                      1                       # What write queue length does an incoming req see
system.mem_ctrls.wrQLenPdf::13                      1                       # What write queue length does an incoming req see
system.mem_ctrls.wrQLenPdf::14                      1                       # What write queue length does an incoming req see
system.mem_ctrls.wrQLenPdf::15                    654                       # What write queue length does an incoming req see
system.mem_ctrls.wrQLenPdf::16                    739                       # What write queue length does an incoming req see
system.mem_ctrls.wrQLenPdf::17                   9500                       # What write queue length does an incoming req see
system.mem_ctrls.wrQLenPdf::18                   9534                       # What write queue length does an incoming req see
system.mem_ctrls.wrQLenPdf::19                   9535                       # What write queue length does an incoming req see
system.mem_ctrls.wrQLenPdf::20                   9535                       # What write queue length does an incoming req see
system.mem_ctrls.wrQLenPdf::21                   9536                       # What write queue length does an incoming req see
system.mem_ctrls.wrQLenPdf::22                   9535                       # What write queue length does an incoming req see
system.mem_ctrls.wrQLenPdf::23                   9534                       # What write queue length does an incoming req see
system.mem_ctrls.wrQLenPdf::24                   9535                       # What write queue length does an incoming req see
system.mem_ctrls.wrQLenPdf::25                   9545                       # What write queue length does an incoming req see
system.mem_ctrls.wrQLenPdf::26                   9534                       # What write queue length does an incoming req see
system.mem_ctrls.wrQLenPdf::27                   9532                       # What write queue length does an incoming req see
system.mem_ctrls.wrQLenPdf::28                   9533                       # What write queue length does an incoming req see
system.mem_ctrls.wrQLenPdf::29                   9532                       # What write queue length does an incoming req see
system.mem_ctrls.wrQLenPdf::30                   9535                       # What write queue length does an incoming req see
system.mem_ctrls.wrQLenPdf::31                   9534                       # What write queue length does an incoming req see
system.mem_ctrls.wrQLenPdf::32                   9532                       # What write queue length does an incoming req see
system.mem_ctrls.wrQLenPdf::33                      0                       # What write queue length does an incoming req see
system.mem_ctrls.wrQLenPdf::34                      0                       # What write queue length does an incoming req see
system.mem_ctrls.wrQLenPdf::35                      0                       # What write queue length does an incoming req see
system.mem_ctrls.wrQLenPdf::36                      0                       # What write queue length does an incoming req see
system.mem_ctrls.wrQLenPdf::37                      0                       # What write queue length does an incoming req see
system.mem_ctrls.wrQLenPdf::38                      0                       # What write queue length does an incoming req see
system.mem_ctrls.wrQLenPdf::39                      0                       # What write queue length does an incoming req see
system.mem_ctrls.wrQLenPdf::40                      0                       # What write queue length does an incoming req see
system.mem_ctrls.wrQLenPdf::41                      0                       # What write queue length does an incoming req see
system.mem_ctrls.wrQLenPdf::42                      0                       # What write queue length does an incoming req see
system.mem_ctrls.wrQLenPdf::43                      0                       # What write queue length does an incoming req see
system.mem_ctrls.wrQLenPdf::44                      0                       # What write queue length does an incoming req see
system.mem_ctrls.wrQLenPdf::45                      0                       # What write queue length does an incoming req see
system.mem_ctrls.wrQLenPdf::46                      0                       # What write queue length does an incoming req see
system.mem_ctrls.wrQLenPdf::47                      0                       # What write queue length does an incoming req see
system.mem_ctrls.wrQLenPdf::48                      0                       # What write queue length does an incoming req see
system.mem_ctrls.wrQLenPdf::49                      0                       # What write queue length does an incoming req see
system.mem_ctrls.wrQLenPdf::50                      0                       # What write queue length does an incoming req see
system.mem_ctrls.wrQLenPdf::51                      0                       # What write queue length does an incoming req see
system.mem_ctrls.wrQLenPdf::52                      0                       # What write queue length does an incoming req see
system.mem_ctrls.wrQLenPdf::53                      0                       # What write queue length does an incoming req see
system.mem_ctrls.wrQLenPdf::54                      0                       # What write queue length does an incoming req see
system.mem_ctrls.wrQLenPdf::55                      0                       # What write queue length does an incoming req see
system.mem_ctrls.wrQLenPdf::56                      0                       # What write queue length does an incoming req see
system.mem_ctrls.wrQLenPdf::57                      0                       # What write queue length does an incoming req see
system.mem_ctrls.wrQLenPdf::58                      0                       # What write queue length does an incoming req see
system.mem_ctrls.wrQLenPdf::59                      0                       # What write queue length does an incoming req see
system.mem_ctrls.wrQLenPdf::60                      0                       # What write queue length does an incoming req see
system.mem_ctrls.wrQLenPdf::61                      0                       # What write queue length does an incoming req see
system.mem_ctrls.wrQLenPdf::62                      0                       # What write queue length does an incoming req see
system.mem_ctrls.wrQLenPdf::63                      0                       # What write queue length does an incoming req see
system.mem_ctrls.bytesPerActivate::samples        65281                       # Bytes accessed per row activation
system.mem_ctrls.bytesPerActivate::mean    386.487217                       # Bytes accessed per row activation
system.mem_ctrls.bytesPerActivate::gmean   287.639603                       # Bytes accessed per row activation
system.mem_ctrls.bytesPerActivate::stdev   309.557296                       # Bytes accessed per row activation
system.mem_ctrls.bytesPerActivate::0-127         6965     10.67%     10.67% # Bytes accessed per row activation
system.mem_ctrls.bytesPerActivate::128-255         7969     12.21%     22.88% # Bytes accessed per row activation
system.mem_ctrls.bytesPerActivate::256-383        33476     51.28%     74.16% # Bytes accessed per row activation
system.mem_ctrls.bytesPerActivate::384-511         2011      3.08%     77.24% # Bytes accessed per row activation
system.mem_ctrls.bytesPerActivate::512-639         1296      1.99%     79.22% # Bytes accessed per row activation
system.mem_ctrls.bytesPerActivate::640-767         1208      1.85%     81.07% # Bytes accessed per row activation
system.mem_ctrls.bytesPerActivate::768-895         1362      2.09%     83.16% # Bytes accessed per row activation
system.mem_ctrls.bytesPerActivate::896-1023         1957      3.00%     86.16% # Bytes accessed per row activation
system.mem_ctrls.bytesPerActivate::1024-1151         9037     13.84%    100.00% # Bytes accessed per row activation
system.mem_ctrls.bytesPerActivate::total        65281                       # Bytes accessed per row activation
system.mem_ctrls.rdPerTurnAround::samples         9532                       # Reads before turning the bus around for writes
system.mem_ctrls.rdPerTurnAround::mean      25.004301                       # Reads before turning the bus around for writes
system.mem_ctrls.rdPerTurnAround::stdev    613.207820                       # Reads before turning the bus around for writes
system.mem_ctrls.rdPerTurnAround::0-2047         9527     99.95%     99.95% # Reads before turning the bus around for writes
system.mem_ctrls.rdPerTurnAround::2048-4095            4      0.04%     99.99% # Reads before turning the bus around for writes
system.mem_ctrls.rdPerTurnAround::59392-61439            1      0.01%    100.00% # Reads before turning the bus around for writes
system.mem_ctrls.rdPerTurnAround::total          9532                       # Reads before turning the bus around for writes
system.mem_ctrls.wrPerTurnAround::samples         9532                       # Writes before turning the bus around for reads
system.mem_ctrls.wrPerTurnAround::mean      16.146139                       # Writes before turning the bus around for reads
system.mem_ctrls.wrPerTurnAround::gmean     16.138272                       # Writes before turning the bus around for reads
system.mem_ctrls.wrPerTurnAround::stdev      0.521435                       # Writes before turning the bus around for reads
system.mem_ctrls.wrPerTurnAround::16             8837     92.71%     92.71% # Writes before turning the bus around for reads
system.mem_ctrls.wrPerTurnAround::18              692      7.26%     99.97% # Writes before turning the bus around for reads
system.mem_ctrls.wrPerTurnAround::19                3      0.03%    100.00% # Writes before turning the bus around for reads
system.mem_ctrls.wrPerTurnAround::total          9532                       # Writes before turning the bus around for reads
system.mem_ctrls.totQLat                   3160359999                       # Total ticks spent queuing
system.mem_ctrls.totMemAccLat              7666941249                       # Total ticks spent from burst creation until serviced by the DRAM
system.mem_ctrls.totBusLat                 1201755000                       # Total ticks spent in databus transfers
system.mem_ctrls.avgQLat                     13148.94                       # Average queueing delay per DRAM burst
system.mem_ctrls.avgBusLat                    5000.00                       # Average bus latency per DRAM burst
system.mem_ctrls.avgMemAccLat                31898.94                       # Average memory access latency per DRAM burst
system.mem_ctrls.avgRdBW                        51.08                       # Average DRAM read bandwidth in MiByte/s
system.mem_ctrls.avgWrBW                        32.71                       # Average achieved write bandwidth in MiByte/s
system.mem_ctrls.avgRdBWSys                     51.08                       # Average system read bandwidth in MiByte/s
system.mem_ctrls.avgWrBWSys                     32.71                       # Average system write bandwidth in MiByte/s
system.mem_ctrls.peakBW                      12800.00                       # Theoretical peak bandwidth in MiByte/s
system.mem_ctrls.busUtil                         0.65                       # Data bus utilization in percentage
system.mem_ctrls.busUtilRead                     0.40                       # Data bus utilization in percentage for reads
system.mem_ctrls.busUtilWrite                    0.26                       # Data bus utilization in percentage for writes
system.mem_ctrls.avgRdQLen                       1.00                       # Average read queue length when enqueuing
system.mem_ctrls.avgWrQLen                      17.06                       # Average write queue length when enqueuing
system.mem_ctrls.readRowHits                   191517                       # Number of row buffer hits during reads
system.mem_ctrls.writeRowHits                  137448                       # Number of row buffer hits during writes
system.mem_ctrls.readRowHitRate                 79.68                       # Row buffer hit rate for reads
system.mem_ctrls.writeRowHitRate                89.29                       # Row buffer hit rate for writes
system.mem_ctrls.avgGap                     763772.92                       # Average gap between requests
system.mem_ctrls.pageHitRate                    83.43                       # Row buffer hit rate, read and write combined
system.mem_ctrls_0.actEnergy                247703400                       # Energy for activate commands per rank (pJ)
system.mem_ctrls_0.preEnergy                135155625                       # Energy for precharge commands per rank (pJ)
system.mem_ctrls_0.readEnergy               929385600                       # Energy for read commands per rank (pJ)
system.mem_ctrls_0.writeEnergy              493387200                       # Energy for write commands per rank (pJ)
system.mem_ctrls_0.refreshEnergy          19669066560                       # Energy for refresh commands per rank (pJ)
system.mem_ctrls_0.actBackEnergy          95038361190                       # Energy for active background per rank (pJ)
system.mem_ctrls_0.preBackEnergy          97317775500                       # Energy for precharge background per rank (pJ)
system.mem_ctrls_0.totalEnergy           213830835075                       # Total energy per rank (pJ)
system.mem_ctrls_0.averagePower            710.068197                       # Core power per rank (mW)
system.mem_ctrls_0.memoryStateTime::IDLE 161281823750                       # Time in different power states
system.mem_ctrls_0.memoryStateTime::REF   10055760000                       # Time in different power states
system.mem_ctrls_0.memoryStateTime::PRE_PDN            0                       # Time in different power states
system.mem_ctrls_0.memoryStateTime::ACT  129804454750                       # Time in different power states
system.mem_ctrls_0.memoryStateTime::ACT_PDN            0                       # Time in different power states
system.mem_ctrls_1.actEnergy                245790720                       # Energy for activate commands per rank (pJ)
system.mem_ctrls_1.preEnergy                134112000                       # Energy for precharge commands per rank (pJ)
system.mem_ctrls_1.readEnergy               944993400                       # Energy for read commands per rank (pJ)
system.mem_ctrls_1.writeEnergy              503917200                       # Energy for write commands per rank (pJ)
system.mem_ctrls_1.refreshEnergy          19669066560                       # Energy for refresh commands per rank (pJ)
system.mem_ctrls_1.actBackEnergy          95387922810                       # Energy for active background per rank (pJ)
system.mem_ctrls_1.preBackEnergy          97011142500                       # Energy for precharge background per rank (pJ)
system.mem_ctrls_1.totalEnergy           213896945190                       # Total energy per rank (pJ)
system.mem_ctrls_1.averagePower            710.287729                       # Core power per rank (mW)
system.mem_ctrls_1.memoryStateTime::IDLE 160769329250                       # Time in different power states
system.mem_ctrls_1.memoryStateTime::REF   10055760000                       # Time in different power states
system.mem_ctrls_1.memoryStateTime::PRE_PDN            0                       # Time in different power states
system.mem_ctrls_1.memoryStateTime::ACT  130316189500                       # Time in different power states
system.mem_ctrls_1.memoryStateTime::ACT_PDN            0                       # Time in different power states
system.cpu_voltage_domain.voltage                   1                       # Voltage in Volts
system.cpu_clk_domain.clock                       500                       # Clock period in ticks
system.cpu0.apic_clk_domain.clock                8000                       # Clock period in ticks
system.cpu0.workload.num_syscalls                  67                       # Number of system calls
system.cpu0.numCycles                       602290127                       # number of cpu cycles simulated
system.cpu0.numWorkItemsStarted                     0                       # number of work items this cpu started
system.cpu0.numWorkItemsCompleted                   0                       # number of work items this cpu completed
system.cpu0.committedInsts                  166721693                       # Number of instructions committed
system.cpu0.committedOps                    460655349                       # Number of ops (including micro ops) committed
system.cpu0.num_int_alu_accesses            435714410                       # Number of integer alu accesses
system.cpu0.num_fp_alu_accesses              11791304                       # Number of float alu accesses
system.cpu0.num_func_calls                   15260472                       # number of times a function call or return occured
system.cpu0.num_conditional_control_insts     35437817                       # number of instructions that are conditional controls
system.cpu0.num_int_insts                   435714410                       # number of integer instructions
system.cpu0.num_fp_insts                     11791304                       # number of float instructions
system.cpu0.num_int_register_reads          918833209                       # number of times the integer registers were read
system.cpu0.num_int_register_writes         431376607                       # number of times the integer registers were written
system.cpu0.num_fp_register_reads            18883012                       # number of times the floating registers were read
system.cpu0.num_fp_register_writes            9400278                       # number of times the floating registers were written
system.cpu0.num_cc_register_reads           364533079                       # number of times the CC registers were read
system.cpu0.num_cc_register_writes          137260186                       # number of times the CC registers were written
system.cpu0.num_mem_refs                     72847749                       # number of memory refs
system.cpu0.num_load_insts                   45188362                       # Number of load instructions
system.cpu0.num_store_insts                  27659387                       # Number of store instructions
system.cpu0.num_idle_cycles                  0.002000                       # Number of idle cycles
system.cpu0.num_busy_cycles              602290126.998000                       # Number of busy cycles
system.cpu0.not_idle_fraction                1.000000                       # Percentage of non-idle cycles
system.cpu0.idle_fraction                    0.000000                       # Percentage of idle cycles
system.cpu0.Branches                         58248807                       # Number of branches fetched
system.cpu0.op_class::No_OpClass              7679143      1.67%      1.67% # Class of executed instruction
system.cpu0.op_class::IntAlu                332626734     72.21%     73.87% # Class of executed instruction
system.cpu0.op_class::IntMult                     314      0.00%     73.87% # Class of executed instruction
system.cpu0.op_class::IntDiv                 38101891      8.27%     82.15% # Class of executed instruction
system.cpu0.op_class::FloatAdd                9399518      2.04%     84.19% # Class of executed instruction
system.cpu0.op_class::FloatCmp                      0      0.00%     84.19% # Class of executed instruction
system.cpu0.op_class::FloatCvt                      0      0.00%     84.19% # Class of executed instruction
system.cpu0.op_class::FloatMult                     0      0.00%     84.19% # Class of executed instruction
system.cpu0.op_class::FloatDiv                      0      0.00%     84.19% # Class of executed instruction
system.cpu0.op_class::FloatSqrt                     0      0.00%     84.19% # Class of executed instruction
system.cpu0.op_class::SimdAdd                       0      0.00%     84.19% # Class of executed instruction
system.cpu0.op_class::SimdAddAcc                    0      0.00%     84.19% # Class of executed instruction
system.cpu0.op_class::SimdAlu                       0      0.00%     84.19% # Class of executed instruction
system.cpu0.op_class::SimdCmp                       0      0.00%     84.19% # Class of executed instruction
system.cpu0.op_class::SimdCvt                       0      0.00%     84.19% # Class of executed instruction
system.cpu0.op_class::SimdMisc                      0      0.00%     84.19% # Class of executed instruction
system.cpu0.op_class::SimdMult                      0      0.00%     84.19% # Class of executed instruction
system.cpu0.op_class::SimdMultAcc                   0      0.00%     84.19% # Class of executed instruction
system.cpu0.op_class::SimdShift                     0      0.00%     84.19% # Class of executed instruction
system.cpu0.op_class::SimdShiftAcc                  0      0.00%     84.19% # Class of executed instruction
system.cpu0.op_class::SimdSqrt                      0      0.00%     84.19% # Class of executed instruction
system.cpu0.op_class::SimdFloatAdd                  0      0.00%     84.19% # Class of executed instruction
system.cpu0.op_class::SimdFloatAlu                  0      0.00%     84.19% # Class of executed instruction
system.cpu0.op_class::SimdFloatCmp                  0      0.00%     84.19% # Class of executed instruction
system.cpu0.op_class::SimdFloatCvt                  0      0.00%     84.19% # Class of executed instruction
system.cpu0.op_class::SimdFloatDiv                  0      0.00%     84.19% # Class of executed instruction
system.cpu0.op_class::SimdFloatMisc                 0      0.00%     84.19% # Class of executed instruction
system.cpu0.op_class::SimdFloatMult                 0      0.00%     84.19% # Class of executed instruction
system.cpu0.op_class::SimdFloatMultAcc              0      0.00%     84.19% # Class of executed instruction
system.cpu0.op_class::SimdFloatSqrt                 0      0.00%     84.19% # Class of executed instruction
system.cpu0.op_class::MemRead                45188362      9.81%     94.00% # Class of executed instruction
system.cpu0.op_class::MemWrite               27659387      6.00%    100.00% # Class of executed instruction
system.cpu0.op_class::IprAccess                     0      0.00%    100.00% # Class of executed instruction
system.cpu0.op_class::InstPrefetch                  0      0.00%    100.00% # Class of executed instruction
system.cpu0.op_class::total                 460655349                       # Class of executed instruction
system.cpu1.apic_clk_domain.clock                8000                       # Clock period in ticks
system.cpu1.numCycles                       602033912                       # number of cpu cycles simulated
system.cpu1.numWorkItemsStarted                     0                       # number of work items this cpu started
system.cpu1.numWorkItemsCompleted                   0                       # number of work items this cpu completed
system.cpu1.committedInsts                    7259116                       # Number of instructions committed
system.cpu1.committedOps                     14517439                       # Number of ops (including micro ops) committed
system.cpu1.num_int_alu_accesses             10896331                       # Number of integer alu accesses
system.cpu1.num_fp_alu_accesses               7110779                       # Number of float alu accesses
system.cpu1.num_func_calls                      20271                       # number of times a function call or return occured
system.cpu1.num_conditional_control_insts       891716                       # number of instructions that are conditional controls
system.cpu1.num_int_insts                    10896331                       # number of integer instructions
system.cpu1.num_fp_insts                      7110779                       # number of float instructions
system.cpu1.num_int_register_reads           19148888                       # number of times the integer registers were read
system.cpu1.num_int_register_writes           6503896                       # number of times the integer registers were written
system.cpu1.num_fp_register_reads            10772321                       # number of times the floating registers were read
system.cpu1.num_fp_register_writes            7100664                       # number of times the floating registers were written
system.cpu1.num_cc_register_reads             5360452                       # number of times the CC registers were read
system.cpu1.num_cc_register_writes            5357246                       # number of times the CC registers were written
system.cpu1.num_mem_refs                      3542079                       # number of memory refs
system.cpu1.num_load_insts                    3521742                       # Number of load instructions
system.cpu1.num_store_insts                     20337                       # Number of store instructions
system.cpu1.num_idle_cycles              560377435.260914                       # Number of idle cycles
system.cpu1.num_busy_cycles              41656476.739086                       # Number of busy cycles
system.cpu1.not_idle_fraction                0.069193                       # Percentage of non-idle cycles
system.cpu1.idle_fraction                    0.930807                       # Percentage of idle cycles
system.cpu1.Branches                           922894                       # Number of branches fetched
system.cpu1.op_class::No_OpClass                    2      0.00%      0.00% # Class of executed instruction
system.cpu1.op_class::IntAlu                  7323896     50.45%     50.45% # Class of executed instruction
system.cpu1.op_class::IntMult                   30341      0.21%     50.66% # Class of executed instruction
system.cpu1.op_class::IntDiv                       14      0.00%     50.66% # Class of executed instruction
system.cpu1.op_class::FloatAdd                3621107     24.94%     75.60% # Class of executed instruction
system.cpu1.op_class::FloatCmp                      0      0.00%     75.60% # Class of executed instruction
system.cpu1.op_class::FloatCvt                      0      0.00%     75.60% # Class of executed instruction
system.cpu1.op_class::FloatMult                     0      0.00%     75.60% # Class of executed instruction
system.cpu1.op_class::FloatDiv                      0      0.00%     75.60% # Class of executed instruction
system.cpu1.op_class::FloatSqrt                     0      0.00%     75.60% # Class of executed instruction
system.cpu1.op_class::SimdAdd                       0      0.00%     75.60% # Class of executed instruction
system.cpu1.op_class::SimdAddAcc                    0      0.00%     75.60% # Class of executed instruction
system.cpu1.op_class::SimdAlu                       0      0.00%     75.60% # Class of executed instruction
system.cpu1.op_class::SimdCmp                       0      0.00%     75.60% # Class of executed instruction
system.cpu1.op_class::SimdCvt                       0      0.00%     75.60% # Class of executed instruction
system.cpu1.op_class::SimdMisc                      0      0.00%     75.60% # Class of executed instruction
system.cpu1.op_class::SimdMult                      0      0.00%     75.60% # Class of executed instruction
system.cpu1.op_class::SimdMultAcc                   0      0.00%     75.60% # Class of executed instruction
system.cpu1.op_class::SimdShift                     0      0.00%     75.60% # Class of executed instruction
system.cpu1.op_class::SimdShiftAcc                  0      0.00%     75.60% # Class of executed instruction
system.cpu1.op_class::SimdSqrt                      0      0.00%     75.60% # Class of executed instruction
system.cpu1.op_class::SimdFloatAdd                  0      0.00%     75.60% # Class of executed instruction
system.cpu1.op_class::SimdFloatAlu                  0      0.00%     75.60% # Class of executed instruction
system.cpu1.op_class::SimdFloatCmp                  0      0.00%     75.60% # Class of executed instruction
system.cpu1.op_class::SimdFloatCvt                  0      0.00%     75.60% # Class of executed instruction
system.cpu1.op_class::SimdFloatDiv                  0      0.00%     75.60% # Class of executed instruction
system.cpu1.op_class::SimdFloatMisc                 0      0.00%     75.60% # Class of executed instruction
system.cpu1.op_class::SimdFloatMult                 0      0.00%     75.60% # Class of executed instruction
system.cpu1.op_class::SimdFloatMultAcc              0      0.00%     75.60% # Class of executed instruction
system.cpu1.op_class::SimdFloatSqrt                 0      0.00%     75.60% # Class of executed instruction
system.cpu1.op_class::MemRead                 3521742     24.26%     99.86% # Class of executed instruction
system.cpu1.op_class::MemWrite                  20337      0.14%    100.00% # Class of executed instruction
system.cpu1.op_class::IprAccess                     0      0.00%    100.00% # Class of executed instruction
system.cpu1.op_class::InstPrefetch                  0      0.00%    100.00% # Class of executed instruction
system.cpu1.op_class::total                  14517439                       # Class of executed instruction
system.ruby.clk_domain.clock                      500                       # Clock period in ticks
system.ruby.delayHist::bucket_size                  4                       # delay histogram for all message
system.ruby.delayHist::max_bucket                  39                       # delay histogram for all message
system.ruby.delayHist::samples                2977877                       # delay histogram for all message
system.ruby.delayHist::mean                  0.445784                       # delay histogram for all message
system.ruby.delayHist::stdev                 1.834930                       # delay histogram for all message
system.ruby.delayHist                    |     2811864     94.43%     94.43% |         227      0.01%     94.43% |      165781      5.57%    100.00% |           2      0.00%    100.00% |           1      0.00%    100.00% |           0      0.00%    100.00% |           0      0.00%    100.00% |           1      0.00%    100.00% |           1      0.00%    100.00% |           0      0.00%    100.00% # delay histogram for all message
system.ruby.delayHist::total                  2977877                       # delay histogram for all message
system.ruby.outstanding_req_hist::bucket_size            1                      
system.ruby.outstanding_req_hist::max_bucket            9                      
system.ruby.outstanding_req_hist::samples    302586984                      
system.ruby.outstanding_req_hist::mean       1.000122                      
system.ruby.outstanding_req_hist::gmean      1.000085                      
system.ruby.outstanding_req_hist::stdev      0.011046                      
system.ruby.outstanding_req_hist         |           0      0.00%      0.00% |   302550058     99.99%     99.99% |       36926      0.01%    100.00% |           0      0.00%    100.00% |           0      0.00%    100.00% |           0      0.00%    100.00% |           0      0.00%    100.00% |           0      0.00%    100.00% |           0      0.00%    100.00% |           0      0.00%    100.00%
system.ruby.outstanding_req_hist::total     302586984                      
system.ruby.latency_hist::bucket_size             256                      
system.ruby.latency_hist::max_bucket             2559                      
system.ruby.latency_hist::samples           302586984                      
system.ruby.latency_hist::mean               1.128380                      
system.ruby.latency_hist::gmean              1.006353                      
system.ruby.latency_hist::stdev              4.856511                      
system.ruby.latency_hist                 |   302572573    100.00%    100.00% |        8839      0.00%    100.00% |        5384      0.00%    100.00% |          96      0.00%    100.00% |          83      0.00%    100.00% |           9      0.00%    100.00% |           0      0.00%    100.00% |           0      0.00%    100.00% |           0      0.00%    100.00% |           0      0.00%    100.00%
system.ruby.latency_hist::total             302586984                      
system.ruby.hit_latency_hist::bucket_size          256                      
system.ruby.hit_latency_hist::max_bucket         2559                      
system.ruby.hit_latency_hist::samples       302586984                      
system.ruby.hit_latency_hist::mean           1.128380                      
system.ruby.hit_latency_hist::gmean          1.006353                      
system.ruby.hit_latency_hist::stdev          4.856511                      
system.ruby.hit_latency_hist             |   302572573    100.00%    100.00% |        8839      0.00%    100.00% |        5384      0.00%    100.00% |          96      0.00%    100.00% |          83      0.00%    100.00% |           9      0.00%    100.00% |           0      0.00%    100.00% |           0      0.00%    100.00% |           0      0.00%    100.00% |           0      0.00%    100.00%
system.ruby.hit_latency_hist::total         302586984                      
system.ruby.l0_cntrl0.Dcache.demand_hits     72690854                       # Number of cache demand hits
system.ruby.l0_cntrl0.Dcache.demand_misses       156957                       # Number of cache demand misses
system.ruby.l0_cntrl0.Dcache.demand_accesses     72847811                       # Number of cache demand accesses
system.ruby.l0_cntrl0.Icache.demand_hits    216844366                       # Number of cache demand hits
system.ruby.l0_cntrl0.Icache.demand_misses         3322                       # Number of cache demand misses
system.ruby.l0_cntrl0.Icache.demand_accesses    216847688                       # Number of cache demand accesses
system.ruby.l0_cntrl0.Zcache.demand_hits     12480765                       # Number of cache demand hits
system.ruby.l0_cntrl0.Zcache.demand_misses       153006                       # Number of cache demand misses
system.ruby.l0_cntrl0.Zcache.demand_accesses     12633771                       # Number of cache demand accesses
system.ruby.l0_cntrl1.Dcache.demand_hits      3185945                       # Number of cache demand hits
system.ruby.l0_cntrl1.Dcache.demand_misses       392998                       # Number of cache demand misses
system.ruby.l0_cntrl1.Dcache.demand_accesses      3578943                       # Number of cache demand accesses
system.ruby.l0_cntrl1.Icache.demand_hits      9311289                       # Number of cache demand hits
system.ruby.l0_cntrl1.Icache.demand_misses         1253                       # Number of cache demand misses
system.ruby.l0_cntrl1.Icache.demand_accesses      9312542                       # Number of cache demand accesses
system.ruby.l0_cntrl1.Zcache.demand_hits        37659                       # Number of cache demand hits
system.ruby.l0_cntrl1.Zcache.demand_misses         3943                       # Number of cache demand misses
system.ruby.l0_cntrl1.Zcache.demand_accesses        41602                       # Number of cache demand accesses
system.ruby.l1_cntrl0.cache.demand_hits          2877                       # Number of cache demand hits
system.ruby.l1_cntrl0.cache.demand_misses       157402                       # Number of cache demand misses
system.ruby.l1_cntrl0.cache.demand_accesses       160279                       # Number of cache demand accesses
system.ruby.l1_cntrl0.zcache.demand_hits            3                       # Number of cache demand hits
system.ruby.l1_cntrl0.zcache.demand_misses          875                       # Number of cache demand misses
system.ruby.l1_cntrl0.zcache.demand_accesses          878                       # Number of cache demand accesses
system.ruby.l1_cntrl1.cache.demand_hits        152074                       # Number of cache demand hits
system.ruby.l1_cntrl1.cache.demand_misses       242177                       # Number of cache demand misses
system.ruby.l1_cntrl1.cache.demand_accesses       394251                       # Number of cache demand accesses
system.ruby.l1_cntrl1.zcache.demand_hits            0                       # Number of cache demand hits
system.ruby.l1_cntrl1.zcache.demand_misses            1                       # Number of cache demand misses
system.ruby.l1_cntrl1.zcache.demand_accesses            1                       # Number of cache demand accesses
system.ruby.l2_cntrl0.L2cache.demand_hits       159196                       # Number of cache demand hits
system.ruby.l2_cntrl0.L2cache.demand_misses       240383                       # Number of cache demand misses
system.ruby.l2_cntrl0.L2cache.demand_accesses       399579                       # Number of cache demand accesses
system.ruby.l2_cntrl0.ZL2cache.demand_hits         2329                       # Number of cache demand hits
system.ruby.l2_cntrl0.ZL2cache.demand_misses          360                       # Number of cache demand misses
system.ruby.l2_cntrl0.ZL2cache.demand_accesses         2689                       # Number of cache demand accesses
system.ruby.l2_cntrl0.fully_busy_cycles            16                       # cycles for which number of transistions == max transitions
system.ruby.memctrl_clk_domain.clock             1500                       # Clock period in ticks
system.ruby.network.routers0.percent_links_utilized            0                      
system.ruby.network.routers1.percent_links_utilized            0                      
system.ruby.network.routers2.percent_links_utilized     0.136711                      
system.ruby.network.routers2.msg_count.Control::0       157402                      
system.ruby.network.routers2.msg_count.Request_Control::2         1809                      
system.ruby.network.routers2.msg_count.Response_Data::1       157413                      
system.ruby.network.routers2.msg_count.Response_Control::1       154952                      
system.ruby.network.routers2.msg_count.Response_Control::2       157401                      
system.ruby.network.routers2.msg_count.Writeback_Data::0       154363                      
system.ruby.network.routers2.msg_count.Writeback_Data::1         1727                      
system.ruby.network.routers2.msg_count.Writeback_Control::0          497                      
system.ruby.network.routers2.msg_bytes.Control::0      1259216                      
system.ruby.network.routers2.msg_bytes.Request_Control::2        14472                      
system.ruby.network.routers2.msg_bytes.Response_Data::1     11333736                      
system.ruby.network.routers2.msg_bytes.Response_Control::1      1239616                      
system.ruby.network.routers2.msg_bytes.Response_Control::2      1259208                      
system.ruby.network.routers2.msg_bytes.Writeback_Data::0     11114136                      
system.ruby.network.routers2.msg_bytes.Writeback_Data::1       124344                      
system.ruby.network.routers2.msg_bytes.Writeback_Control::0         3976                      
system.ruby.network.routers3.percent_links_utilized     0.134379                      
system.ruby.network.routers3.msg_count.Control::0       242177                      
system.ruby.network.routers3.msg_count.Request_Control::2           28                      
system.ruby.network.routers3.msg_count.Response_Data::1       242201                      
system.ruby.network.routers3.msg_count.Response_Control::1       241127                      
system.ruby.network.routers3.msg_count.Response_Control::2       242138                      
system.ruby.network.routers3.msg_count.Writeback_Data::0        11378                      
system.ruby.network.routers3.msg_count.Writeback_Control::0       229732                      
system.ruby.network.routers3.msg_bytes.Control::0      1937416                      
system.ruby.network.routers3.msg_bytes.Request_Control::2          224                      
system.ruby.network.routers3.msg_bytes.Response_Data::1     17438472                      
system.ruby.network.routers3.msg_bytes.Response_Control::1      1929016                      
system.ruby.network.routers3.msg_bytes.Response_Control::2      1937104                      
system.ruby.network.routers3.msg_bytes.Writeback_Data::0       819216                      
system.ruby.network.routers3.msg_bytes.Writeback_Control::0      1837856                      
system.ruby.network.routers4.percent_links_utilized     0.436436                      
system.ruby.network.routers4.msg_count.Control::0       639936                      
system.ruby.network.routers4.msg_count.Request_Control::2         1833                      
system.ruby.network.routers4.msg_count.Response_Data::1       793849                      
system.ruby.network.routers4.msg_count.Response_Control::1       591050                      
system.ruby.network.routers4.msg_count.Response_Control::2       399539                      
system.ruby.network.routers4.msg_count.Writeback_Data::0       165741                      
system.ruby.network.routers4.msg_count.Writeback_Data::1         1727                      
system.ruby.network.routers4.msg_count.Writeback_Control::0       230229                      
system.ruby.network.routers4.msg_bytes.Control::0      5119488                      
system.ruby.network.routers4.msg_bytes.Request_Control::2        14664                      
system.ruby.network.routers4.msg_bytes.Response_Data::1     57157128                      
system.ruby.network.routers4.msg_bytes.Response_Control::1      4728400                      
system.ruby.network.routers4.msg_bytes.Response_Control::2      3196312                      
system.ruby.network.routers4.msg_bytes.Writeback_Data::0     11933352                      
system.ruby.network.routers4.msg_bytes.Writeback_Data::1       124344                      
system.ruby.network.routers4.msg_bytes.Writeback_Control::0      1841832                      
system.ruby.network.routers5.percent_links_utilized     0.165366                      
system.ruby.network.routers5.msg_count.Control::0       240357                      
system.ruby.network.routers5.msg_count.Response_Data::1       394286                      
system.ruby.network.routers5.msg_count.Response_Control::1       194995                      
system.ruby.network.routers5.msg_bytes.Control::0      1922856                      
system.ruby.network.routers5.msg_bytes.Response_Data::1     28388592                      
system.ruby.network.routers5.msg_bytes.Response_Control::1      1559960                      
system.ruby.network.routers6.percent_links_utilized     0.145482                      
system.ruby.network.routers6.msg_count.Control::0       639936                      
system.ruby.network.routers6.msg_count.Request_Control::2         1837                      
system.ruby.network.routers6.msg_count.Response_Data::1       793875                      
system.ruby.network.routers6.msg_count.Response_Control::1       591062                      
system.ruby.network.routers6.msg_count.Response_Control::2       399539                      
system.ruby.network.routers6.msg_count.Writeback_Data::0       165741                      
system.ruby.network.routers6.msg_count.Writeback_Data::1         1727                      
system.ruby.network.routers6.msg_count.Writeback_Control::0       230229                      
system.ruby.network.routers6.msg_bytes.Control::0      5119488                      
system.ruby.network.routers6.msg_bytes.Request_Control::2        14696                      
system.ruby.network.routers6.msg_bytes.Response_Data::1     57159000                      
system.ruby.network.routers6.msg_bytes.Response_Control::1      4728496                      
system.ruby.network.routers6.msg_bytes.Response_Control::2      3196312                      
system.ruby.network.routers6.msg_bytes.Writeback_Data::0     11933352                      
system.ruby.network.routers6.msg_bytes.Writeback_Data::1       124344                      
system.ruby.network.routers6.msg_bytes.Writeback_Control::0      1841832                      
system.ruby.network.msg_count.Control         1919808                      
system.ruby.network.msg_count.Request_Control         5507                      
system.ruby.network.msg_count.Response_Data      2381624                      
system.ruby.network.msg_count.Response_Control      2971803                      
system.ruby.network.msg_count.Writeback_Data       502404                      
system.ruby.network.msg_count.Writeback_Control       690687                      
system.ruby.network.msg_byte.Control         15358464                      
system.ruby.network.msg_byte.Request_Control        44056                      
system.ruby.network.msg_byte.Response_Data    171476928                      
system.ruby.network.msg_byte.Response_Control     23774424                      
system.ruby.network.msg_byte.Writeback_Data     36173088                      
system.ruby.network.msg_byte.Writeback_Control      5525496                      
system.ruby.network.routers0.throttle0.link_utilization            0                      
system.ruby.network.routers0.throttle1.link_utilization            0                      
system.ruby.network.routers1.throttle0.link_utilization            0                      
system.ruby.network.routers1.throttle1.link_utilization            0                      
system.ruby.network.routers2.throttle0.link_utilization     0.130602                      
system.ruby.network.routers2.throttle0.msg_count.Request_Control::2         1809                      
system.ruby.network.routers2.throttle0.msg_count.Response_Data::1       157391                      
system.ruby.network.routers2.throttle0.msg_count.Response_Control::1       154882                      
system.ruby.network.routers2.throttle0.msg_bytes.Request_Control::2        14472                      
system.ruby.network.routers2.throttle0.msg_bytes.Response_Data::1     11332152                      
system.ruby.network.routers2.throttle0.msg_bytes.Response_Control::1      1239056                      
system.ruby.network.routers2.throttle1.link_utilization     0.142820                      
system.ruby.network.routers2.throttle1.msg_count.Control::0       157402                      
system.ruby.network.routers2.throttle1.msg_count.Response_Data::1           22                      
system.ruby.network.routers2.throttle1.msg_count.Response_Control::1           70                      
system.ruby.network.routers2.throttle1.msg_count.Response_Control::2       157401                      
system.ruby.network.routers2.throttle1.msg_count.Writeback_Data::0       154363                      
system.ruby.network.routers2.throttle1.msg_count.Writeback_Data::1         1727                      
system.ruby.network.routers2.throttle1.msg_count.Writeback_Control::0          497                      
system.ruby.network.routers2.throttle1.msg_bytes.Control::0      1259216                      
system.ruby.network.routers2.throttle1.msg_bytes.Response_Data::1         1584                      
system.ruby.network.routers2.throttle1.msg_bytes.Response_Control::1          560                      
system.ruby.network.routers2.throttle1.msg_bytes.Response_Control::2      1259208                      
system.ruby.network.routers2.throttle1.msg_bytes.Writeback_Data::0     11114136                      
system.ruby.network.routers2.throttle1.msg_bytes.Writeback_Data::1       124344                      
system.ruby.network.routers2.throttle1.msg_bytes.Writeback_Control::0         3976                      
system.ruby.network.routers3.throttle0.link_utilization     0.200960                      
system.ruby.network.routers3.throttle0.msg_count.Request_Control::2           28                      
system.ruby.network.routers3.throttle0.msg_count.Response_Data::1       242176                      
system.ruby.network.routers3.throttle0.msg_count.Response_Control::1       241112                      
system.ruby.network.routers3.throttle0.msg_bytes.Request_Control::2          224                      
system.ruby.network.routers3.throttle0.msg_bytes.Response_Data::1     17436672                      
system.ruby.network.routers3.throttle0.msg_bytes.Response_Control::1      1928896                      
system.ruby.network.routers3.throttle1.link_utilization     0.067799                      
system.ruby.network.routers3.throttle1.msg_count.Control::0       242177                      
system.ruby.network.routers3.throttle1.msg_count.Response_Data::1           25                      
system.ruby.network.routers3.throttle1.msg_count.Response_Control::1           15                      
system.ruby.network.routers3.throttle1.msg_count.Response_Control::2       242138                      
system.ruby.network.routers3.throttle1.msg_count.Writeback_Data::0        11378                      
system.ruby.network.routers3.throttle1.msg_count.Writeback_Control::0       229732                      
system.ruby.network.routers3.throttle1.msg_bytes.Control::0      1937416                      
system.ruby.network.routers3.throttle1.msg_bytes.Response_Data::1         1800                      
system.ruby.network.routers3.throttle1.msg_bytes.Response_Control::1          120                      
system.ruby.network.routers3.throttle1.msg_bytes.Response_Control::2      1937104                      
system.ruby.network.routers3.throttle1.msg_bytes.Writeback_Data::0       819216                      
system.ruby.network.routers3.throttle1.msg_bytes.Writeback_Control::0      1837856                      
system.ruby.network.routers4.throttle0.link_utilization     0.404664                      
system.ruby.network.routers4.throttle0.msg_count.Control::0       399579                      
system.ruby.network.routers4.throttle0.msg_count.Response_Data::1       240379                      
system.ruby.network.routers4.throttle0.msg_count.Response_Control::1       174535                      
system.ruby.network.routers4.throttle0.msg_count.Response_Control::2       399539                      
system.ruby.network.routers4.throttle0.msg_count.Writeback_Data::0       165741                      
system.ruby.network.routers4.throttle0.msg_count.Writeback_Data::1         1727                      
system.ruby.network.routers4.throttle0.msg_count.Writeback_Control::0       230229                      
system.ruby.network.routers4.throttle0.msg_bytes.Control::0      3196632                      
system.ruby.network.routers4.throttle0.msg_bytes.Response_Data::1     17307288                      
system.ruby.network.routers4.throttle0.msg_bytes.Response_Control::1      1396280                      
system.ruby.network.routers4.throttle0.msg_bytes.Response_Control::2      3196312                      
system.ruby.network.routers4.throttle0.msg_bytes.Writeback_Data::0     11933352                      
system.ruby.network.routers4.throttle0.msg_bytes.Writeback_Data::1       124344                      
system.ruby.network.routers4.throttle0.msg_bytes.Writeback_Control::0      1841832                      
system.ruby.network.routers4.throttle1.link_utilization     0.468207                      
system.ruby.network.routers4.throttle1.msg_count.Control::0       240357                      
system.ruby.network.routers4.throttle1.msg_count.Request_Control::2         1833                      
system.ruby.network.routers4.throttle1.msg_count.Response_Data::1       553470                      
system.ruby.network.routers4.throttle1.msg_count.Response_Control::1       416515                      
system.ruby.network.routers4.throttle1.msg_bytes.Control::0      1922856                      
system.ruby.network.routers4.throttle1.msg_bytes.Request_Control::2        14664                      
system.ruby.network.routers4.throttle1.msg_bytes.Response_Data::1     39849840                      
system.ruby.network.routers4.throttle1.msg_bytes.Response_Control::1      3332120                      
system.ruby.network.routers5.throttle0.link_utilization     0.136666                      
system.ruby.network.routers5.throttle0.msg_count.Control::0       240357                      
system.ruby.network.routers5.throttle0.msg_count.Response_Data::1       153929                      
system.ruby.network.routers5.throttle0.msg_count.Response_Control::1        20533                      
system.ruby.network.routers5.throttle0.msg_bytes.Control::0      1922856                      
system.ruby.network.routers5.throttle0.msg_bytes.Response_Data::1     11082888                      
system.ruby.network.routers5.throttle0.msg_bytes.Response_Control::1       164264                      
system.ruby.network.routers5.throttle1.link_utilization     0.194066                      
system.ruby.network.routers5.throttle1.msg_count.Response_Data::1       240357                      
system.ruby.network.routers5.throttle1.msg_count.Response_Control::1       174462                      
system.ruby.network.routers5.throttle1.msg_bytes.Response_Data::1     17305704                      
system.ruby.network.routers5.throttle1.msg_bytes.Response_Control::1      1395696                      
system.ruby.network.routers6.throttle0.link_utilization            0                      
system.ruby.network.routers6.throttle1.link_utilization            0                      
system.ruby.network.routers6.throttle2.link_utilization     0.130602                      
system.ruby.network.routers6.throttle2.msg_count.Request_Control::2         1809                      
system.ruby.network.routers6.throttle2.msg_count.Response_Data::1       157391                      
system.ruby.network.routers6.throttle2.msg_count.Response_Control::1       154882                      
system.ruby.network.routers6.throttle2.msg_bytes.Request_Control::2        14472                      
system.ruby.network.routers6.throttle2.msg_bytes.Response_Data::1     11332152                      
system.ruby.network.routers6.throttle2.msg_bytes.Response_Control::1      1239056                      
system.ruby.network.routers6.throttle3.link_utilization     0.200960                      
system.ruby.network.routers6.throttle3.msg_count.Request_Control::2           28                      
system.ruby.network.routers6.throttle3.msg_count.Response_Data::1       242176                      
system.ruby.network.routers6.throttle3.msg_count.Response_Control::1       241112                      
system.ruby.network.routers6.throttle3.msg_bytes.Request_Control::2          224                      
system.ruby.network.routers6.throttle3.msg_bytes.Response_Data::1     17436672                      
system.ruby.network.routers6.throttle3.msg_bytes.Response_Control::1      1928896                      
system.ruby.network.routers6.throttle4.link_utilization     0.404664                      
system.ruby.network.routers6.throttle4.msg_count.Control::0       399579                      
system.ruby.network.routers6.throttle4.msg_count.Response_Data::1       240379                      
system.ruby.network.routers6.throttle4.msg_count.Response_Control::1       174535                      
system.ruby.network.routers6.throttle4.msg_count.Response_Control::2       399539                      
system.ruby.network.routers6.throttle4.msg_count.Writeback_Data::0       165741                      
system.ruby.network.routers6.throttle4.msg_count.Writeback_Data::1         1727                      
system.ruby.network.routers6.throttle4.msg_count.Writeback_Control::0       230229                      
system.ruby.network.routers6.throttle4.msg_bytes.Control::0      3196632                      
system.ruby.network.routers6.throttle4.msg_bytes.Response_Data::1     17307288                      
system.ruby.network.routers6.throttle4.msg_bytes.Response_Control::1      1396280                      
system.ruby.network.routers6.throttle4.msg_bytes.Response_Control::2      3196312                      
system.ruby.network.routers6.throttle4.msg_bytes.Writeback_Data::0     11933352                      
system.ruby.network.routers6.throttle4.msg_bytes.Writeback_Data::1       124344                      
system.ruby.network.routers6.throttle4.msg_bytes.Writeback_Control::0      1841832                      
system.ruby.network.routers6.throttle5.link_utilization     0.136666                      
system.ruby.network.routers6.throttle5.msg_count.Control::0       240357                      
system.ruby.network.routers6.throttle5.msg_count.Response_Data::1       153929                      
system.ruby.network.routers6.throttle5.msg_count.Response_Control::1        20533                      
system.ruby.network.routers6.throttle5.msg_bytes.Control::0      1922856                      
system.ruby.network.routers6.throttle5.msg_bytes.Response_Data::1     11082888                      
system.ruby.network.routers6.throttle5.msg_bytes.Response_Control::1       164264                      
system.ruby.delayVCHist.vnet_0::bucket_size            4                       # delay histogram for vnet_0
system.ruby.delayVCHist.vnet_0::max_bucket           39                       # delay histogram for vnet_0
system.ruby.delayVCHist.vnet_0::samples       1195088                       # delay histogram for vnet_0
system.ruby.delayVCHist.vnet_0::mean         1.109579                       # delay histogram for vnet_0
system.ruby.delayVCHist.vnet_0::stdev        2.765296                       # delay histogram for vnet_0
system.ruby.delayVCHist.vnet_0           |     1029341     86.13%     86.13% |           0      0.00%     86.13% |      165742     13.87%    100.00% |           2      0.00%    100.00% |           1      0.00%    100.00% |           0      0.00%    100.00% |           0      0.00%    100.00% |           1      0.00%    100.00% |           1      0.00%    100.00% |           0      0.00%    100.00% # delay histogram for vnet_0
system.ruby.delayVCHist.vnet_0::total         1195088                       # delay histogram for vnet_0
system.ruby.delayVCHist.vnet_1::bucket_size            1                       # delay histogram for vnet_1
system.ruby.delayVCHist.vnet_1::max_bucket            9                       # delay histogram for vnet_1
system.ruby.delayVCHist.vnet_1::samples       1766732                       # delay histogram for vnet_1
system.ruby.delayVCHist.vnet_1::mean         0.000177                       # delay histogram for vnet_1
system.ruby.delayVCHist.vnet_1::stdev        0.037587                       # delay histogram for vnet_1
system.ruby.delayVCHist.vnet_1           |     1766693    100.00%    100.00% |           0      0.00%    100.00% |           0      0.00%    100.00% |           0      0.00%    100.00% |           0      0.00%    100.00% |           0      0.00%    100.00% |           0      0.00%    100.00% |           0      0.00%    100.00% |          39      0.00%    100.00% |           0      0.00%    100.00% # delay histogram for vnet_1
system.ruby.delayVCHist.vnet_1::total         1766732                       # delay histogram for vnet_1
system.ruby.delayVCHist.vnet_2::bucket_size            1                       # delay histogram for vnet_2
system.ruby.delayVCHist.vnet_2::max_bucket            9                       # delay histogram for vnet_2
system.ruby.delayVCHist.vnet_2::samples         16057                       # delay histogram for vnet_2
system.ruby.delayVCHist.vnet_2::mean         0.070686                       # delay histogram for vnet_2
system.ruby.delayVCHist.vnet_2::stdev        0.590300                       # delay histogram for vnet_2
system.ruby.delayVCHist.vnet_2           |       15830     98.59%     98.59% |           0      0.00%     98.59% |           0      0.00%     98.59% |           0      0.00%     98.59% |           0      0.00%     98.59% |         227      1.41%    100.00% |           0      0.00%    100.00% |           0      0.00%    100.00% |           0      0.00%    100.00% |           0      0.00%    100.00% # delay histogram for vnet_2
system.ruby.delayVCHist.vnet_2::total           16057                       # delay histogram for vnet_2
system.ruby.LD.latency_hist::bucket_size          256                      
system.ruby.LD.latency_hist::max_bucket          2559                      
system.ruby.LD.latency_hist::samples         43661503                      
system.ruby.LD.latency_hist::mean            1.363844                      
system.ruby.LD.latency_hist::gmean           1.026477                      
system.ruby.LD.latency_hist::stdev           7.601040                      
system.ruby.LD.latency_hist              |    43656094     99.99%     99.99% |        3348      0.01%    100.00% |        1993      0.00%    100.00% |          28      0.00%    100.00% |          37      0.00%    100.00% |           3      0.00%    100.00% |           0      0.00%    100.00% |           0      0.00%    100.00% |           0      0.00%    100.00% |           0      0.00%    100.00%
system.ruby.LD.latency_hist::total           43661503                      
system.ruby.LD.hit_latency_hist::bucket_size          256                      
system.ruby.LD.hit_latency_hist::max_bucket         2559                      
system.ruby.LD.hit_latency_hist::samples     43661503                      
system.ruby.LD.hit_latency_hist::mean        1.363844                      
system.ruby.LD.hit_latency_hist::gmean       1.026477                      
system.ruby.LD.hit_latency_hist::stdev       7.601040                      
system.ruby.LD.hit_latency_hist          |    43656094     99.99%     99.99% |        3348      0.01%    100.00% |        1993      0.00%    100.00% |          28      0.00%    100.00% |          37      0.00%    100.00% |           3      0.00%    100.00% |           0      0.00%    100.00% |           0      0.00%    100.00% |           0      0.00%    100.00% |           0      0.00%    100.00%
system.ruby.LD.hit_latency_hist::total       43661503                      
system.ruby.ST.latency_hist::bucket_size          256                      
system.ruby.ST.latency_hist::max_bucket          2559                      
system.ruby.ST.latency_hist::samples         22594574                      
system.ruby.ST.latency_hist::mean            2.004974                      
system.ruby.ST.latency_hist::gmean           1.034159                      
system.ruby.ST.latency_hist::stdev          14.203305                      
system.ruby.ST.latency_hist              |    22585597     99.96%     99.96% |        5488      0.02%     99.98% |        3369      0.01%    100.00% |          68      0.00%    100.00% |          46      0.00%    100.00% |           6      0.00%    100.00% |           0      0.00%    100.00% |           0      0.00%    100.00% |           0      0.00%    100.00% |           0      0.00%    100.00%
system.ruby.ST.latency_hist::total           22594574                      
system.ruby.ST.hit_latency_hist::bucket_size          256                      
system.ruby.ST.hit_latency_hist::max_bucket         2559                      
system.ruby.ST.hit_latency_hist::samples     22594574                      
system.ruby.ST.hit_latency_hist::mean        2.004974                      
system.ruby.ST.hit_latency_hist::gmean       1.034159                      
system.ruby.ST.hit_latency_hist::stdev      14.203305                      
system.ruby.ST.hit_latency_hist          |    22585597     99.96%     99.96% |        5488      0.02%     99.98% |        3369      0.01%    100.00% |          68      0.00%    100.00% |          46      0.00%    100.00% |           6      0.00%    100.00% |           0      0.00%    100.00% |           0      0.00%    100.00% |           0      0.00%    100.00% |           0      0.00%    100.00%
[...]
system.ruby.L0Cache_Controller.S.Ifetch::total          181                      
system.ruby.L0Cache_Controller.S.Store   |          11     91.67%     91.67% |           1      8.33%    100.00%
system.ruby.L0Cache_Controller.S.Store::total           12                      
system.ruby.L0Cache_Controller.S.Inv     |           2     11.76%     11.76% |          15     88.24%    100.00%
system.ruby.L0Cache_Controller.S.Inv::total           17                      
system.ruby.L0Cache_Controller.S.L0_Replacement |           7      4.17%      4.17% |         161     95.83%    100.00%
system.ruby.L0Cache_Controller.S.L0_Replacement::total          168                      
system.ruby.L0Cache_Controller.E.Load    |     5380396     63.01%     63.01% |     3158450     36.99%    100.00%
system.ruby.L0Cache_Controller.E.Load::total      8538846                      
system.ruby.L0Cache_Controller.E.Ifetch  |   216844341     95.88%     95.88% |     9311133      4.12%    100.00%
system.ruby.L0Cache_Controller.E.Ifetch::total    226155474                      
system.ruby.L0Cache_Controller.E.Store   |        2859     62.63%     62.63% |        1706     37.37%    100.00%
system.ruby.L0Cache_Controller.E.Store::total         4565                      
system.ruby.L0Cache_Controller.E.Inv     |        2346     18.44%     18.44% |       10377     81.56%    100.00%
system.ruby.L0Cache_Controller.E.Inv::total        12723                      
system.ruby.L0Cache_Controller.E.L0_Replacement |        1232      0.32%      0.32% |      380363     99.68%    100.00%
system.ruby.L0Cache_Controller.E.L0_Replacement::total       381595                      
system.ruby.L0Cache_Controller.M.Load    |    32689067     99.97%     99.97% |        8479      0.03%    100.00%
system.ruby.L0Cache_Controller.M.Load::total     32697546                      
system.ruby.L0Cache_Controller.M.Store   |    32588672     99.95%     99.95% |       17143      0.05%    100.00%
system.ruby.L0Cache_Controller.M.Store::total     32605815                      
system.ruby.L0Cache_Controller.M.Inv     |         846     58.34%     58.34% |         604     41.66%    100.00%
system.ruby.L0Cache_Controller.M.Inv::total         1450                      
system.ruby.L0Cache_Controller.M.L0_Replacement |      155312     98.37%     98.37% |        2579      1.63%    100.00%
system.ruby.L0Cache_Controller.M.L0_Replacement::total       157891                      
system.ruby.L0Cache_Controller.IS.Data   |          21     10.45%     10.45% |         180     89.55%    100.00%
system.ruby.L0Cache_Controller.IS.Data::total          201                      
system.ruby.L0Cache_Controller.IS.Data_Exclusive |        6882      1.72%      1.72% |      392576     98.28%    100.00%
system.ruby.L0Cache_Controller.IS.Data_Exclusive::total       399458                      
system.ruby.L0Cache_Controller.IM.Data_Exclusive |      153365     99.04%     99.04% |        1494      0.96%    100.00%
system.ruby.L0Cache_Controller.IM.Data_Exclusive::total       154859                      
system.ruby.L0Cache_Controller.SM.Data_Exclusive |          11     91.67%     91.67% |           1      8.33%    100.00%
system.ruby.L0Cache_Controller.SM.Data_Exclusive::total           12                      
system.ruby.L1Cache_Controller.Load      |        6903      1.73%      1.73% |      392756     98.27%    100.00%
system.ruby.L1Cache_Controller.Load::total       399659                      
system.ruby.L1Cache_Controller.Store     |      153376     99.03%     99.03% |        1495      0.97%    100.00%
system.ruby.L1Cache_Controller.Store::total       154871                      
system.ruby.L1Cache_Controller.WriteBack |      156544     29.02%     29.02% |      382942     70.98%    100.00%
system.ruby.L1Cache_Controller.WriteBack::total       539486                      
system.ruby.L1Cache_Controller.L0_DataAck |         846     58.34%     58.34% |         604     41.66%    100.00%
system.ruby.L1Cache_Controller.L0_DataAck::total         1450                      
system.ruby.L1Cache_Controller.Inv       |        1797     99.17%     99.17% |          15      0.83%    100.00%
system.ruby.L1Cache_Controller.Inv::total         1812                      
system.ruby.L1Cache_Controller.L0_Invalidate_Own |        5960     21.30%     21.30% |       22026     78.70%    100.00%
system.ruby.L1Cache_Controller.L0_Invalidate_Own::total        27986                      
system.ruby.L1Cache_Controller.L0_Invalidate_Else |         430     94.71%     94.71% |          24      5.29%    100.00%
system.ruby.L1Cache_Controller.L0_Invalidate_Else::total          454                      
system.ruby.L1Cache_Controller.L1_Replacement |      154861     39.11%     39.11% |      241152     60.89%    100.00%
system.ruby.L1Cache_Controller.L1_Replacement::total       396013                      
system.ruby.L1Cache_Controller.Fwd_GETX  |           2     66.67%     66.67% |           1     33.33%    100.00%
system.ruby.L1Cache_Controller.Fwd_GETX::total            3                      
system.ruby.L1Cache_Controller.Fwd_GETS  |          10     45.45%     45.45% |          12     54.55%    100.00%
system.ruby.L1Cache_Controller.Fwd_GETS::total           22                      
system.ruby.L1Cache_Controller.Data_Exclusive |        4053      1.65%      1.65% |      241343     98.35%    100.00%
system.ruby.L1Cache_Controller.Data_Exclusive::total       245396                      
system.ruby.L1Cache_Controller.DataS_fromL1 |          12     54.55%     54.55% |          10     45.45%    100.00%
system.ruby.L1Cache_Controller.DataS_fromL1::total           22                      
system.ruby.L1Cache_Controller.Data_all_Acks |      153326     99.47%     99.47% |         823      0.53%    100.00%
system.ruby.L1Cache_Controller.Data_all_Acks::total       154149                      
system.ruby.L1Cache_Controller.L0_Ack    |        2349     18.39%     18.39% |       10421     81.61%    100.00%
system.ruby.L1Cache_Controller.L0_Ack::total        12770                      
system.ruby.L1Cache_Controller.Ack       |          11     91.67%     91.67% |           1      8.33%    100.00%
system.ruby.L1Cache_Controller.Ack::total           12                      
system.ruby.L1Cache_Controller.Ack_all   |          11     91.67%     91.67% |           1      8.33%    100.00%
system.ruby.L1Cache_Controller.Ack_all::total           12                      
system.ruby.L1Cache_Controller.WB_Ack    |      154860     39.11%     39.11% |      241110     60.89%    100.00%
system.ruby.L1Cache_Controller.WB_Ack::total       395970                      
system.ruby.L1Cache_Controller.NP.Load   |        4065      1.66%      1.66% |      241392     98.34%    100.00%
system.ruby.L1Cache_Controller.NP.Load::total       245457                      
system.ruby.L1Cache_Controller.NP.Store  |      153325     99.49%     99.49% |         784      0.51%    100.00%
system.ruby.L1Cache_Controller.NP.Store::total       154109                      
system.ruby.L1Cache_Controller.NP.Inv    |           0      0.00%      0.00% |           4    100.00%    100.00%
system.ruby.L1Cache_Controller.NP.Inv::total            4                      
system.ruby.L1Cache_Controller.I.Load    |           1    100.00%    100.00% |           0      0.00%    100.00%
system.ruby.L1Cache_Controller.I.Load::total            1                      
system.ruby.L1Cache_Controller.S.Load    |           2      1.50%      1.50% |         131     98.50%    100.00%
system.ruby.L1Cache_Controller.S.Load::total          133                      
system.ruby.L1Cache_Controller.S.Store   |          11     91.67%     91.67% |           1      8.33%    100.00%
system.ruby.L1Cache_Controller.S.Store::total           12                      
system.ruby.L1Cache_Controller.S.L0_Invalidate_Own |           1      2.33%      2.33% |          42     97.67%    100.00%
system.ruby.L1Cache_Controller.S.L0_Invalidate_Own::total           43                      
system.ruby.L1Cache_Controller.S.L0_Invalidate_Else |           2     50.00%     50.00% |           2     50.00%    100.00%
system.ruby.L1Cache_Controller.S.L0_Invalidate_Else::total            4                      
system.ruby.L1Cache_Controller.SS.Load   |           6    100.00%    100.00% |           0      0.00%    100.00%
system.ruby.L1Cache_Controller.SS.Load::total            6                      
system.ruby.L1Cache_Controller.SS.Inv    |           5     31.25%     31.25% |          11     68.75%    100.00%
system.ruby.L1Cache_Controller.SS.Inv::total           16                      
system.ruby.L1Cache_Controller.SS.L1_Replacement |           1      2.33%      2.33% |          42     97.67%    100.00%
system.ruby.L1Cache_Controller.SS.L1_Replacement::total           43                      
system.ruby.L1Cache_Controller.E.WriteBack |        1013      0.43%      0.43% |      237307     99.57%    100.00%
system.ruby.L1Cache_Controller.E.WriteBack::total       238320                      
system.ruby.L1Cache_Controller.E.L0_Invalidate_Own |        2577     39.78%     39.78% |        3901     60.22%    100.00%
system.ruby.L1Cache_Controller.E.L0_Invalidate_Own::total         6478                      
system.ruby.L1Cache_Controller.E.L0_Invalidate_Else |          78     93.98%     93.98% |           5      6.02%    100.00%
system.ruby.L1Cache_Controller.E.L0_Invalidate_Else::total           83                      
system.ruby.L1Cache_Controller.EE.Inv    |          65    100.00%    100.00% |           0      0.00%    100.00%
system.ruby.L1Cache_Controller.EE.Inv::total           65                      
system.ruby.L1Cache_Controller.EE.L1_Replacement |        2230     36.59%     36.59% |        3864     63.41%    100.00%
system.ruby.L1Cache_Controller.EE.L1_Replacement::total         6094                      
system.ruby.L1Cache_Controller.EE.Fwd_GETX |           1    100.00%    100.00% |           0      0.00%    100.00%
system.ruby.L1Cache_Controller.EE.Fwd_GETX::total            1                      
system.ruby.L1Cache_Controller.EE.Fwd_GETS |           5     50.00%     50.00% |           5     50.00%    100.00%
system.ruby.L1Cache_Controller.EE.Fwd_GETS::total           10                      
system.ruby.L1Cache_Controller.M.WriteBack |      155531     51.64%     51.64% |      145635     48.36%    100.00%
system.ruby.L1Cache_Controller.M.WriteBack::total       301166                      
system.ruby.L1Cache_Controller.M.L0_Invalidate_Own |         402      5.38%      5.38% |        7070     94.62%    100.00%
system.ruby.L1Cache_Controller.M.L0_Invalidate_Own::total         7472                      
system.ruby.L1Cache_Controller.M.L0_Invalidate_Else |         135     96.43%     96.43% |           5      3.57%    100.00%
system.ruby.L1Cache_Controller.M.L0_Invalidate_Else::total          140                      
system.ruby.L1Cache_Controller.MM.Load   |        2829      1.84%      1.84% |      151233     98.16%    100.00%
system.ruby.L1Cache_Controller.MM.Load::total       154062                      
system.ruby.L1Cache_Controller.MM.Store  |          40      5.33%      5.33% |         710     94.67%    100.00%
system.ruby.L1Cache_Controller.MM.Store::total          750                      
system.ruby.L1Cache_Controller.MM.Inv    |        1727    100.00%    100.00% |           0      0.00%    100.00%
system.ruby.L1Cache_Controller.MM.Inv::total         1727                      
system.ruby.L1Cache_Controller.MM.L1_Replacement |      152630     39.15%     39.15% |      237246     60.85%    100.00%
system.ruby.L1Cache_Controller.MM.L1_Replacement::total       389876                      
system.ruby.L1Cache_Controller.MM.Fwd_GETX |           1     50.00%     50.00% |           1     50.00%    100.00%
system.ruby.L1Cache_Controller.MM.Fwd_GETX::total            2                      
system.ruby.L1Cache_Controller.MM.Fwd_GETS |           5     41.67%     41.67% |           7     58.33%    100.00%
system.ruby.L1Cache_Controller.MM.Fwd_GETS::total           12                      
system.ruby.L1Cache_Controller.IS.Data_Exclusive |        4053      1.65%      1.65% |      241343     98.35%    100.00%
system.ruby.L1Cache_Controller.IS.Data_Exclusive::total       245396                      
system.ruby.L1Cache_Controller.IS.DataS_fromL1 |          12     54.55%     54.55% |          10     45.45%    100.00%
system.ruby.L1Cache_Controller.IS.DataS_fromL1::total           22                      
system.ruby.L1Cache_Controller.IS.Data_all_Acks |           1      2.50%      2.50% |          39     97.50%    100.00%
system.ruby.L1Cache_Controller.IS.Data_all_Acks::total           40                      
system.ruby.L1Cache_Controller.IM.Data_all_Acks |      153325     99.49%     99.49% |         784      0.51%    100.00%
system.ruby.L1Cache_Controller.IM.Data_all_Acks::total       154109                      
system.ruby.L1Cache_Controller.SM.Ack    |          11     91.67%     91.67% |           1      8.33%    100.00%
system.ruby.L1Cache_Controller.SM.Ack::total           12                      
system.ruby.L1Cache_Controller.SM.Ack_all |          11     91.67%     91.67% |           1      8.33%    100.00%
system.ruby.L1Cache_Controller.SM.Ack_all::total           12                      
system.ruby.L1Cache_Controller.M_I.WB_Ack |      154860     39.11%     39.11% |      241110     60.89%    100.00%
system.ruby.L1Cache_Controller.M_I.WB_Ack::total       395970                      
system.ruby.L1Cache_Controller.S_IL0.L0_Invalidate_Own |           1      2.33%      2.33% |          42     97.67%    100.00%
system.ruby.L1Cache_Controller.S_IL0.L0_Invalidate_Own::total           43                      
system.ruby.L1Cache_Controller.S_IL0.L0_Invalidate_Else |           2     50.00%     50.00% |           2     50.00%    100.00%
system.ruby.L1Cache_Controller.S_IL0.L0_Invalidate_Else::total            4                      
system.ruby.L1Cache_Controller.S_IL0.L0_Ack |           3      6.38%      6.38% |          44     93.62%    100.00%
system.ruby.L1Cache_Controller.S_IL0.L0_Ack::total           47                      
system.ruby.L1Cache_Controller.E_IL0.L0_DataAck |         354     90.54%     90.54% |          37      9.46%    100.00%
system.ruby.L1Cache_Controller.E_IL0.L0_DataAck::total          391                      
system.ruby.L1Cache_Controller.E_IL0.L0_Invalidate_Own |        2577     39.78%     39.78% |        3901     60.22%    100.00%
system.ruby.L1Cache_Controller.E_IL0.L0_Invalidate_Own::total         6478                      
system.ruby.L1Cache_Controller.E_IL0.L0_Invalidate_Else |          78     93.98%     93.98% |           5      6.02%    100.00%
system.ruby.L1Cache_Controller.E_IL0.L0_Invalidate_Else::total           83                      
system.ruby.L1Cache_Controller.E_IL0.L0_Ack |        2301     37.29%     37.29% |        3869     62.71%    100.00%
system.ruby.L1Cache_Controller.E_IL0.L0_Ack::total         6170                      
system.ruby.L1Cache_Controller.M_IL0.L0_DataAck |         492     46.46%     46.46% |         567     53.54%    100.00%
system.ruby.L1Cache_Controller.M_IL0.L0_DataAck::total         1059                      
system.ruby.L1Cache_Controller.M_IL0.L0_Invalidate_Own |         402      5.38%      5.38% |        7070     94.62%    100.00%
system.ruby.L1Cache_Controller.M_IL0.L0_Invalidate_Own::total         7472                      
system.ruby.L1Cache_Controller.M_IL0.L0_Invalidate_Else |         135     96.43%     96.43% |           5      3.57%    100.00%
system.ruby.L1Cache_Controller.M_IL0.L0_Invalidate_Else::total          140                      
system.ruby.L1Cache_Controller.M_IL0.L0_Ack |          45      0.69%      0.69% |        6508     99.31%    100.00%
system.ruby.L1Cache_Controller.M_IL0.L0_Ack::total         6553                      
system.ruby.L2Cache_Controller.L1_GETS         245461      0.00%      0.00%
system.ruby.L2Cache_Controller.L1_GETX         154110      0.00%      0.00%
system.ruby.L2Cache_Controller.L1_UPGRADE           12      0.00%      0.00%
system.ruby.L2Cache_Controller.L1_PUTX         395970      0.00%      0.00%
system.ruby.L2Cache_Controller.L2_Replacement       152209      0.00%      0.00%
system.ruby.L2Cache_Controller.L2_Replacement_clean        22253      0.00%      0.00%
system.ruby.L2Cache_Controller.Mem_Data        240357      0.00%      0.00%
system.ruby.L2Cache_Controller.Mem_Ack         174462      0.00%      0.00%
system.ruby.L2Cache_Controller.WB_Data           1746      0.00%      0.00%
system.ruby.L2Cache_Controller.WB_Data_clean            3      0.00%      0.00%
system.ruby.L2Cache_Controller.Ack                  4      0.00%      0.00%
system.ruby.L2Cache_Controller.Ack_all             69      0.00%      0.00%
system.ruby.L2Cache_Controller.Unblock             22      0.00%      0.00%
system.ruby.L2Cache_Controller.Exclusive_Unblock       399517      0.00%      0.00%
system.ruby.L2Cache_Controller.NP.L1_GETS        86719      0.00%      0.00%
system.ruby.L2Cache_Controller.NP.L1_GETX       153638      0.00%      0.00%
system.ruby.L2Cache_Controller.SS.L1_GETS           38      0.00%      0.00%
system.ruby.L2Cache_Controller.SS.L1_UPGRADE           12      0.00%      0.00%
system.ruby.L2Cache_Controller.SS.L2_Replacement            3      0.00%      0.00%
system.ruby.L2Cache_Controller.SS.L2_Replacement_clean            1      0.00%      0.00%
system.ruby.L2Cache_Controller.M.L1_GETS       158678      0.00%      0.00%
system.ruby.L2Cache_Controller.M.L1_GETX          468      0.00%      0.00%
system.ruby.L2Cache_Controller.M.L2_Replacement       152187      0.00%      0.00%
system.ruby.L2Cache_Controller.M.L2_Replacement_clean        20479      0.00%      0.00%
system.ruby.L2Cache_Controller.MT.L1_GETS           22      0.00%      0.00%
system.ruby.L2Cache_Controller.MT.L1_GETX            3      0.00%      0.00%
system.ruby.L2Cache_Controller.MT.L1_PUTX       395970      0.00%      0.00%
system.ruby.L2Cache_Controller.MT.L2_Replacement           19      0.00%      0.00%
system.ruby.L2Cache_Controller.MT.L2_Replacement_clean         1773      0.00%      0.00%
system.ruby.L2Cache_Controller.M_I.L1_GETS            2      0.00%      0.00%
system.ruby.L2Cache_Controller.M_I.L1_GETX            1      0.00%      0.00%
system.ruby.L2Cache_Controller.M_I.Mem_Ack       174462      0.00%      0.00%
system.ruby.L2Cache_Controller.MT_I.WB_Data            7      0.00%      0.00%
system.ruby.L2Cache_Controller.MT_I.Ack_all           12      0.00%      0.00%
system.ruby.L2Cache_Controller.MCT_I.WB_Data         1720      0.00%      0.00%
system.ruby.L2Cache_Controller.MCT_I.Ack_all           53      0.00%      0.00%
system.ruby.L2Cache_Controller.I_I.Ack              1      0.00%      0.00%
system.ruby.L2Cache_Controller.I_I.Ack_all            1      0.00%      0.00%
system.ruby.L2Cache_Controller.S_I.Ack              3      0.00%      0.00%
system.ruby.L2Cache_Controller.S_I.Ack_all            3      0.00%      0.00%
system.ruby.L2Cache_Controller.ISS.L1_GETS            1      0.00%      0.00%
system.ruby.L2Cache_Controller.ISS.Mem_Data        86718      0.00%      0.00%
system.ruby.L2Cache_Controller.IS.Mem_Data            1      0.00%      0.00%
system.ruby.L2Cache_Controller.IM.Mem_Data       153638      0.00%      0.00%
system.ruby.L2Cache_Controller.SS_MB.Exclusive_Unblock           12      0.00%      0.00%
system.ruby.L2Cache_Controller.MT_MB.L1_GETS            1      0.00%      0.00%
system.ruby.L2Cache_Controller.MT_MB.Exclusive_Unblock       399505      0.00%      0.00%
system.ruby.L2Cache_Controller.MT_IIB.WB_Data           19      0.00%      0.00%
system.ruby.L2Cache_Controller.MT_IIB.WB_Data_clean            3      0.00%      0.00%
system.ruby.L2Cache_Controller.MT_SB.Unblock           22      0.00%      0.00%

---------- End Simulation Statistics   ----------
