
---------- Begin Simulation Statistics ----------
sim_seconds                                  0.791074                       # Number of seconds simulated
sim_ticks                                791073566000                       # Number of ticks simulated
final_tick                               791073566000                       # Number of ticks from beginning of simulation (restored from checkpoints and never reset)
sim_freq                                 1000000000000                       # Frequency of simulated ticks
host_inst_rate                                 150347                       # Simulator instruction rate (inst/s)
host_op_rate                                   414875                       # Simulator op (including micro ops) rate (op/s)
host_tick_rate                              254145645                       # Simulator tick rate (ticks/s)
host_mem_usage                                 942900                       # Number of bytes of host memory used
host_seconds                                  3112.68                       # Real time elapsed on the host
sim_insts                                   467982294                       # Number of instructions simulated
sim_ops                                    1291372051                       # Number of ops (including micro ops) simulated
system.voltage_domain.voltage                       1                       # Voltage in Volts
system.clk_domain.clock                          1000                       # Clock period in ticks
system.mem_ctrls.bytes_read::ruby.dir_cntrl0     32234112                       # Number of bytes read from this memory
system.mem_ctrls.bytes_read::total           32234112                       # Number of bytes read from this memory
system.mem_ctrls.bytes_written::ruby.dir_cntrl0     11215552                       # Number of bytes written to this memory
system.mem_ctrls.bytes_written::total        11215552                       # Number of bytes written to this memory
system.mem_ctrls.num_reads::ruby.dir_cntrl0       503658                       # Number of read requests responded to by this memory
system.mem_ctrls.num_reads::total              503658                       # Number of read requests responded to by this memory
system.mem_ctrls.num_writes::ruby.dir_cntrl0       175243                       # Number of write requests responded to by this memory
system.mem_ctrls.num_writes::total             175243                       # Number of write requests responded to by this memory
system.mem_ctrls.bw_read::ruby.dir_cntrl0     40747300                       # Total read bandwidth from this memory (bytes/s)
system.mem_ctrls.bw_read::total              40747300                       # Total read bandwidth from this memory (bytes/s)
system.mem_ctrls.bw_write::ruby.dir_cntrl0     14177635                       # Write bandwidth from this memory (bytes/s)
system.mem_ctrls.bw_write::total             14177635                       # Write bandwidth from this memory (bytes/s)
system.mem_ctrls.bw_total::ruby.dir_cntrl0     54924935                       # Total bandwidth to/from this memory (bytes/s)
system.mem_ctrls.bw_total::total             54924935                       # Total bandwidth to/from this memory (bytes/s)
system.mem_ctrls.readReqs                      503658                       # Number of read requests accepted
system.mem_ctrls.writeReqs                     175243                       # Number of write requests accepted
system.mem_ctrls.readBursts                    503658                       # Number of DRAM read bursts, including those serviced by the write queue
system.mem_ctrls.writeBursts                   175243                       # Number of DRAM write bursts, including those merged in the write queue
system.mem_ctrls.bytesReadDRAM               32227520                       # Total number of bytes read from DRAM
system.mem_ctrls.bytesReadWrQ                    6592                       # Total number of bytes read from write queue
system.mem_ctrls.bytesWritten                11213184                       # Total number of bytes written to DRAM
system.mem_ctrls.bytesReadSys                32234112                       # Total read bytes from the system interface side
system.mem_ctrls.bytesWrittenSys             11215552                       # Total written bytes from the system interface side
system.mem_ctrls.servicedByWrQ                    103                       # Number of DRAM read bursts serviced by the write queue
system.mem_ctrls.mergedWrBursts                    13                       # Number of DRAM write bursts merged with an existing one
system.mem_ctrls.neitherReadNorWriteReqs            0                       # Number of requests that are neither read nor write
system.mem_ctrls.perBankRdBursts::0             31575                       # Per bank write bursts
system.mem_ctrls.perBankRdBursts::1             31560                       # Per bank write bursts
system.mem_ctrls.perBankRdBursts::2             31252                       # Per bank write bursts
system.mem_ctrls.perBankRdBursts::3             31130                       # Per bank write bursts
system.mem_ctrls.perBankRdBursts::4             31492                       # Per bank write bursts
system.mem_ctrls.perBankRdBursts::5             31539                       # Per bank write bursts
system.mem_ctrls.perBankRdBursts::6             31490                       # Per bank write bursts
system.mem_ctrls.perBankRdBursts::7             31606                       # Per bank write bursts
system.mem_ctrls.perBankRdBursts::8             31145                       # Per bank write bursts
system.mem_ctrls.perBankRdBursts::9             31870                       # Per bank write bursts
system.mem_ctrls.perBankRdBursts::10            31777                       # Per bank write bursts
system.mem_ctrls.perBankRdBursts::11            31661                       # Per bank write bursts
system.mem_ctrls.perBankRdBursts::12            31364                       # Per bank write bursts
system.mem_ctrls.perBankRdBursts::13            31354                       # Per bank write bursts
system.mem_ctrls.perBankRdBursts::14            31391                       # Per bank write bursts
system.mem_ctrls.perBankRdBursts::15            31349                       # Per bank write bursts
system.mem_ctrls.perBankWrBursts::0             11043                       # Per bank write bursts
system.mem_ctrls.perBankWrBursts::1             11063                       # Per bank write bursts
system.mem_ctrls.perBankWrBursts::2             10724                       # Per bank write bursts
system.mem_ctrls.perBankWrBursts::3             10568                       # Per bank write bursts
system.mem_ctrls.perBankWrBursts::4             10988                       # Per bank write bursts
system.mem_ctrls.perBankWrBursts::5             11030                       # Per bank write bursts
system.mem_ctrls.perBankWrBursts::6             10941                       # Per bank write bursts
system.mem_ctrls.perBankWrBursts::7             11079                       # Per bank write bursts
system.mem_ctrls.perBankWrBursts::8             10658                       # Per bank write bursts
system.mem_ctrls.perBankWrBursts::9             11387                       # Per bank write bursts
system.mem_ctrls.perBankWrBursts::10            11227                       # Per bank write bursts
system.mem_ctrls.perBankWrBursts::11            11090                       # Per bank write bursts
system.mem_ctrls.perBankWrBursts::12            10845                       # Per bank write bursts
system.mem_ctrls.perBankWrBursts::13            10843                       # Per bank write bursts
system.mem_ctrls.perBankWrBursts::14            10891                       # Per bank write bursts
system.mem_ctrls.perBankWrBursts::15            10829                       # Per bank write bursts
system.mem_ctrls.numRdRetry                         0                       # Number of times read queue was full causing retry
system.mem_ctrls.numWrRetry                         0                       # Number of times write queue was full causing retry
system.mem_ctrls.totGap                  791073471500                       # Total gap between requests
system.mem_ctrls.readPktSize::0                     0                       # Read request sizes (log2)
system.mem_ctrls.readPktSize::1                     0                       # Read request sizes (log2)
system.mem_ctrls.readPktSize::2                     0                       # Read request sizes (log2)
system.mem_ctrls.readPktSize::3                     0                       # Read request sizes (log2)
system.mem_ctrls.readPktSize::4                     0                       # Read request sizes (log2)
system.mem_ctrls.readPktSize::5                     0                       # Read request sizes (log2)
system.mem_ctrls.readPktSize::6                503658                       # Read request sizes (log2)
system.mem_ctrls.writePktSize::0                    0                       # Write request sizes (log2)
system.mem_ctrls.writePktSize::1                    0                       # Write request sizes (log2)
system.mem_ctrls.writePktSize::2                    0                       # Write request sizes (log2)
system.mem_ctrls.writePktSize::3                    0                       # Write request sizes (log2)
system.mem_ctrls.writePktSize::4                    0                       # Write request sizes (log2)
system.mem_ctrls.writePktSize::5                    0                       # Write request sizes (log2)
system.mem_ctrls.writePktSize::6               175243                       # Write request sizes (log2)
system.mem_ctrls.rdQLenPdf::0                  496765                       # What read queue length does an incoming req see
system.mem_ctrls.rdQLenPdf::1                    6790                       # What read queue length does an incoming req see
system.mem_ctrls.rdQLenPdf::2                       0                       # What read queue length does an incoming req see
system.mem_ctrls.rdQLenPdf::3                       0                       # What read queue length does an incoming req see
system.mem_ctrls.rdQLenPdf::4                       0                       # What read queue length does an incoming req see
system.mem_ctrls.rdQLenPdf::5                       0                       # What read queue length does an incoming req see
system.mem_ctrls.rdQLenPdf::6                       0                       # What read queue length does an incoming req see
system.mem_ctrls.rdQLenPdf::7                       0                       # What read queue length does an incoming req see
system.mem_ctrls.rdQLenPdf::8                       0                       # What read queue length does an incoming req see
system.mem_ctrls.rdQLenPdf::9                       0                       # What read queue length does an incoming req see
system.mem_ctrls.rdQLenPdf::10                      0                       # What read queue length does an incoming req see
system.mem_ctrls.rdQLenPdf::11                      0                       # What read queue length does an incoming req see
system.mem_ctrls.rdQLenPdf::12                      0                       # What read queue length does an incoming req see
system.mem_ctrls.rdQLenPdf::13                      0                       # What read queue length does an incoming req see
system.mem_ctrls.rdQLenPdf::14                      0                       # What read queue length does an incoming req see
system.mem_ctrls.rdQLenPdf::15                      0                       # What read queue length does an incoming req see
system.mem_ctrls.rdQLenPdf::16                      0                       # What read queue length does an incoming req see
system.mem_ctrls.rdQLenPdf::17                      0                       # What read queue length does an incoming req see
system.mem_ctrls.rdQLenPdf::18                      0                       # What read queue length does an incoming req see
system.mem_ctrls.rdQLenPdf::19                      0                       # What read queue length does an incoming req see
system.mem_ctrls.rdQLenPdf::20                      0                       # What read queue length does an incoming req see
system.mem_ctrls.rdQLenPdf::21                      0                       # What read queue length does an incoming req see
system.mem_ctrls.rdQLenPdf::22                      0                       # What read queue length does an incoming req see
system.mem_ctrls.rdQLenPdf::23                      0                       # What read queue length does an incoming req see
system.mem_ctrls.rdQLenPdf::24                      0                       # What read queue length does an incoming req see
system.mem_ctrls.rdQLenPdf::25                      0                       # What read queue length does an incoming req see
system.mem_ctrls.rdQLenPdf::26                      0                       # What read queue length does an incoming req see
system.mem_ctrls.rdQLenPdf::27                      0                       # What read queue length does an incoming req see
system.mem_ctrls.rdQLenPdf::28                      0                       # What read queue length does an incoming req see
system.mem_ctrls.rdQLenPdf::29                      0                       # What read queue length does an incoming req see
system.mem_ctrls.rdQLenPdf::30                      0                       # What read queue length does an incoming req see
system.mem_ctrls.rdQLenPdf::31                      0                       # What read queue length does an incoming req see
system.mem_ctrls.wrQLenPdf::0                       1                       # What write queue length does an incoming req see
system.mem_ctrls.wrQLenPdf::1                       1                       # What write queue length does an incoming req see
system.mem_ctrls.wrQLenPdf::2                       1                       # What write queue length does an incoming req see
system.mem_ctrls.wrQLenPdf::3                       1                       # What write queue length does an incoming req see
system.mem_ctrls.wrQLenPdf::4                       1                       # What write queue length does an incoming req see
system.mem_ctrls.wrQLenPdf::5                       1                       # What write queue length does an incoming req see
system.mem_ctrls.wrQLenPdf::6                       1                       # What write queue length does an incoming req see
system.mem_ctrls.wrQLenPdf::7                       1                       # What write queue length does an incoming req see
system.mem_ctrls.wrQLenPdf::8                       1                       # What write queue length does an incoming req see
system.mem_ctrls.wrQLenPdf::9                       1                       # What write queue length does an incoming req see
system.mem_ctrls.wrQLenPdf::10                      1                       # What write queue length does an incoming req see
system.mem_ctrls.wrQLenPdf::11                      1                       # What write queue length does an incoming req see
system.mem_ctrls.wrQLenPdf::12                      1                       # What write queue length does an incoming req see
system.mem_ctrls.wrQLenPdf::13                      1                       # What write queue length does an incoming req see
system.mem_ctrls.wrQLenPdf::14                      1                       # What write queue length does an incoming req see
system.mem_ctrls.wrQLenPdf::15                    366                       # What write queue length does an incoming req see
system.mem_ctrls.wrQLenPdf::16                    385                       # What write queue length does an incoming req see
system.mem_ctrls.wrQLenPdf::17                   8908                       # What write queue length does an incoming req see
system.mem_ctrls.wrQLenPdf::18                  10943                       # What write queue length does an incoming req see
system.mem_ctrls.wrQLenPdf::19                  11134                       # What write queue length does an incoming req see
system.mem_ctrls.wrQLenPdf::20                  10947                       # What write queue length does an incoming req see
system.mem_ctrls.wrQLenPdf::21                  10968                       # What write queue length does an incoming req see
system.mem_ctrls.wrQLenPdf::22                  11097                       # What write queue length does an incoming req see
system.mem_ctrls.wrQLenPdf::23                  11135                       # What write queue length does an incoming req see
system.mem_ctrls.wrQLenPdf::24                  11130                       # What write queue length does an incoming req see
system.mem_ctrls.wrQLenPdf::25                  10983                       # What write queue length does an incoming req see
system.mem_ctrls.wrQLenPdf::26                  11110                       # What write queue length does an incoming req see
system.mem_ctrls.wrQLenPdf::27                  10958                       # What write queue length does an incoming req see
system.mem_ctrls.wrQLenPdf::28                  11048                       # What write queue length does an incoming req see
system.mem_ctrls.wrQLenPdf::29                  11013                       # What write queue length does an incoming req see
system.mem_ctrls.wrQLenPdf::30                  10965                       # What write queue length does an incoming req see
system.mem_ctrls.wrQLenPdf::31                  11159                       # What write queue length does an incoming req see
system.mem_ctrls.wrQLenPdf::32                  10941                       # What write queue length does an incoming req see
system.mem_ctrls.wrQLenPdf::33                     25                       # What write queue length does an incoming req see
system.mem_ctrls.wrQLenPdf::34                      0                       # What write queue length does an incoming req see
system.mem_ctrls.wrQLenPdf::35                      0                       # What write queue length does an incoming req see
system.mem_ctrls.wrQLenPdf::36                      0                       # What write queue length does an incoming req see
system.mem_ctrls.wrQLenPdf::37                      0                       # What write queue length does an incoming req see
system.mem_ctrls.wrQLenPdf::38                      0                       # What write queue length does an incoming req see
system.mem_ctrls.wrQLenPdf::39                      0                       # What write queue length does an incoming req see
system.mem_ctrls.wrQLenPdf::40                      0                       # What write queue length does an incoming req see
system.mem_ctrls.wrQLenPdf::41                      0                       # What write queue length does an incoming req see
system.mem_ctrls.wrQLenPdf::42                      0                       # What write queue length does an incoming req see
system.mem_ctrls.wrQLenPdf::43                      0                       # What write queue length does an incoming req see
system.mem_ctrls.wrQLenPdf::44                      0                       # What write queue length does an incoming req see
system.mem_ctrls.wrQLenPdf::45                      0                       # What write queue length does an incoming req see
system.mem_ctrls.wrQLenPdf::46                      0                       # What write queue length does an incoming req see
system.mem_ctrls.wrQLenPdf::47                      0                       # What write queue length does an incoming req see
system.mem_ctrls.wrQLenPdf::48                      0                       # What write queue length does an incoming req see
system.mem_ctrls.wrQLenPdf::49                      0                       # What write queue length does an incoming req see
system.mem_ctrls.wrQLenPdf::50                      0                       # What write queue length does an incoming req see
system.mem_ctrls.wrQLenPdf::51                      0                       # What write queue length does an incoming req see
system.mem_ctrls.wrQLenPdf::52                      0                       # What write queue length does an incoming req see
system.mem_ctrls.wrQLenPdf::53                      0                       # What write queue length does an incoming req see
system.mem_ctrls.wrQLenPdf::54                      0                       # What write queue length does an incoming req see
system.mem_ctrls.wrQLenPdf::55                      0                       # What write queue length does an incoming req see
system.mem_ctrls.wrQLenPdf::56                      0                       # What write queue length does an incoming req see
system.mem_ctrls.wrQLenPdf::57                      0                       # What write queue length does an incoming req see
system.mem_ctrls.wrQLenPdf::58                      0                       # What write queue length does an incoming req see
system.mem_ctrls.wrQLenPdf::59                      0                       # What write queue length does an incoming req see
system.mem_ctrls.wrQLenPdf::60                      0                       # What write queue length does an incoming req see
system.mem_ctrls.wrQLenPdf::61                      0                       # What write queue length does an incoming req see
system.mem_ctrls.wrQLenPdf::62                      0                       # What write queue length does an incoming req see
system.mem_ctrls.wrQLenPdf::63                      0                       # What write queue length does an incoming req see
system.mem_ctrls.bytesPerActivate::samples       101032                       # Bytes accessed per row activation
system.mem_ctrls.bytesPerActivate::mean    429.953916                       # Bytes accessed per row activation
system.mem_ctrls.bytesPerActivate::gmean   344.599885                       # Bytes accessed per row activation
system.mem_ctrls.bytesPerActivate::stdev   282.854861                       # Bytes accessed per row activation
system.mem_ctrls.bytesPerActivate::0-127         6100      6.04%      6.04% # Bytes accessed per row activation
system.mem_ctrls.bytesPerActivate::128-255         7564      7.49%     13.52% # Bytes accessed per row activation
system.mem_ctrls.bytesPerActivate::256-383        46410     45.94%     59.46% # Bytes accessed per row activation
system.mem_ctrls.bytesPerActivate::384-511         7975      7.89%     67.35% # Bytes accessed per row activation
system.mem_ctrls.bytesPerActivate::512-639         9292      9.20%     76.55% # Bytes accessed per row activation
system.mem_ctrls.bytesPerActivate::640-767         5856      5.80%     82.35% # Bytes accessed per row activation
system.mem_ctrls.bytesPerActivate::768-895         4307      4.26%     86.61% # Bytes accessed per row activation
system.mem_ctrls.bytesPerActivate::896-1023         3213      3.18%     89.79% # Bytes accessed per row activation
system.mem_ctrls.bytesPerActivate::1024-1151        10315     10.21%    100.00% # Bytes accessed per row activation
system.mem_ctrls.bytesPerActivate::total       101032                       # Bytes accessed per row activation
system.mem_ctrls.rdPerTurnAround::samples        10902                       # Reads before turning the bus around for writes
system.mem_ctrls.rdPerTurnAround::mean      46.188498                       # Reads before turning the bus around for writes
system.mem_ctrls.rdPerTurnAround::gmean     16.265467                       # Reads before turning the bus around for writes
system.mem_ctrls.rdPerTurnAround::stdev   2948.147934                       # Reads before turning the bus around for writes
system.mem_ctrls.rdPerTurnAround::0-16383        10901     99.99%     99.99% # Reads before turning the bus around for writes
system.mem_ctrls.rdPerTurnAround::294912-311295            1      0.01%    100.00% # Reads before turning the bus around for writes
system.mem_ctrls.rdPerTurnAround::total         10902                       # Reads before turning the bus around for writes
system.mem_ctrls.wrPerTurnAround::samples        10902                       # Writes before turning the bus around for reads
system.mem_ctrls.wrPerTurnAround::mean      16.070996                       # Writes before turning the bus around for reads
system.mem_ctrls.wrPerTurnAround::gmean     16.066852                       # Writes before turning the bus around for reads
system.mem_ctrls.wrPerTurnAround::stdev      0.379631                       # Writes before turning the bus around for reads
system.mem_ctrls.wrPerTurnAround::16            10528     96.57%     96.57% # Writes before turning the bus around for reads
system.mem_ctrls.wrPerTurnAround::18              348      3.19%     99.76% # Writes before turning the bus around for reads
system.mem_ctrls.wrPerTurnAround::19               26      0.24%    100.00% # Writes before turning the bus around for reads
system.mem_ctrls.wrPerTurnAround::total         10902                       # Writes before turning the bus around for reads
system.mem_ctrls.totQLat                   5827572078                       # Total ticks spent queuing
system.mem_ctrls.totMemAccLat             15269228328                       # Total ticks spent from burst creation until serviced by the DRAM
system.mem_ctrls.totBusLat                 2517775000                       # Total ticks spent in databus transfers
system.mem_ctrls.avgQLat                     11572.86                       # Average queueing delay per DRAM burst
system.mem_ctrls.avgBusLat                    5000.00                       # Average bus latency per DRAM burst
system.mem_ctrls.avgMemAccLat                30322.86                       # Average memory access latency per DRAM burst
system.mem_ctrls.avgRdBW                        40.74                       # Average DRAM read bandwidth in MiByte/s
system.mem_ctrls.avgWrBW                        14.17                       # Average achieved write bandwidth in MiByte/s
system.mem_ctrls.avgRdBWSys                     40.75                       # Average system read bandwidth in MiByte/s
system.mem_ctrls.avgWrBWSys                     14.18                       # Average system write bandwidth in MiByte/s
system.mem_ctrls.peakBW                      12800.00                       # Theoretical peak bandwidth in MiByte/s
system.mem_ctrls.busUtil                         0.43                       # Data bus utilization in percentage
system.mem_ctrls.busUtilRead                     0.32                       # Data bus utilization in percentage for reads
system.mem_ctrls.busUtilWrite                    0.11                       # Data bus utilization in percentage for writes
system.mem_ctrls.avgRdQLen                       1.00                       # Average read queue length when enqueuing
system.mem_ctrls.avgWrQLen                      12.71                       # Average write queue length when enqueuing
system.mem_ctrls.readRowHits                   417848                       # Number of row buffer hits during reads
system.mem_ctrls.writeRowHits                  159871                       # Number of row buffer hits during writes
system.mem_ctrls.readRowHitRate                 82.98                       # Row buffer hit rate for reads
system.mem_ctrls.writeRowHitRate                91.23                       # Row buffer hit rate for writes
system.mem_ctrls.avgGap                    1165226.55                       # Average gap between requests
system.mem_ctrls.pageHitRate                    85.11                       # Row buffer hit rate, read and write combined
system.mem_ctrls_0.actEnergy                385968240                       # Energy for activate commands per rank (pJ)
system.mem_ctrls_0.preEnergy                210597750                       # Energy for precharge commands per rank (pJ)
system.mem_ctrls_0.readEnergy              1962636000                       # Energy for read commands per rank (pJ)
system.mem_ctrls_0.writeEnergy              566332560                       # Energy for write commands per rank (pJ)
system.mem_ctrls_0.refreshEnergy          51668678880                       # Energy for refresh commands per rank (pJ)
system.mem_ctrls_0.actBackEnergy         184438706175                       # Energy for active background per rank (pJ)
system.mem_ctrls_0.preBackEnergy         312852273750                       # Energy for precharge background per rank (pJ)
system.mem_ctrls_0.totalEnergy           552085193355                       # Total energy per rank (pJ)
system.mem_ctrls_0.averagePower            697.898804                       # Core power per rank (mW)
system.mem_ctrls_0.memoryStateTime::IDLE 519401574001                       # Time in different power states
system.mem_ctrls_0.memoryStateTime::REF   26415480000                       # Time in different power states
system.mem_ctrls_0.memoryStateTime::PRE_PDN            0                       # Time in different power states
system.mem_ctrls_0.memoryStateTime::ACT  245250647249                       # Time in different power states
system.mem_ctrls_0.memoryStateTime::ACT_PDN            0                       # Time in different power states
system.mem_ctrls_1.actEnergy                377523720                       # Energy for activate commands per rank (pJ)
system.mem_ctrls_1.preEnergy                205990125                       # Energy for precharge commands per rank (pJ)
system.mem_ctrls_1.readEnergy              1964617200                       # Energy for read commands per rank (pJ)
system.mem_ctrls_1.writeEnergy              568587600                       # Energy for write commands per rank (pJ)
system.mem_ctrls_1.refreshEnergy          51668678880                       # Energy for refresh commands per rank (pJ)
system.mem_ctrls_1.actBackEnergy         182929231035                       # Energy for active background per rank (pJ)
system.mem_ctrls_1.preBackEnergy         314176374750                       # Energy for precharge background per rank (pJ)
system.mem_ctrls_1.totalEnergy           551891003310                       # Total energy per rank (pJ)
system.mem_ctrls_1.averagePower            697.653326                       # Core power per rank (mW)
system.mem_ctrls_1.memoryStateTime::IDLE 521616763750                       # Time in different power states
system.mem_ctrls_1.memoryStateTime::REF   26415480000                       # Time in different power states
system.mem_ctrls_1.memoryStateTime::PRE_PDN            0                       # Time in different power states
system.mem_ctrls_1.memoryStateTime::ACT  243035694250                       # Time in different power states
system.mem_ctrls_1.memoryStateTime::ACT_PDN            0                       # Time in different power states
system.cpu_voltage_domain.voltage                   1                       # Voltage in Volts
system.cpu_clk_domain.clock                       500                       # Clock period in ticks
system.cpu0.apic_clk_domain.clock                8000                       # Clock period in ticks
system.cpu0.workload.num_syscalls                  98                       # Number of system calls
system.cpu0.numCycles                      1582147132                       # number of cpu cycles simulated
system.cpu0.numWorkItemsStarted                     0                       # number of work items this cpu started
system.cpu0.numWorkItemsCompleted                   0                       # number of work items this cpu completed
system.cpu0.committedInsts                  435427060                       # Number of instructions committed
system.cpu0.committedOps                   1226628663                       # Number of ops (including micro ops) committed
system.cpu0.num_int_alu_accesses           1158147967                       # Number of integer alu accesses
system.cpu0.num_fp_alu_accesses              29078659                       # Number of float alu accesses
system.cpu0.num_func_calls                   40775464                       # number of times a function call or return occured
system.cpu0.num_conditional_control_insts     95753059                       # number of instructions that are conditional controls
system.cpu0.num_int_insts                  1158147967                       # number of integer instructions
system.cpu0.num_fp_insts                     29078659                       # number of float instructions
system.cpu0.num_int_register_reads         2442748406                       # number of times the integer registers were read
system.cpu0.num_int_register_writes        1149333653                       # number of times the integer registers were written
system.cpu0.num_fp_register_reads            46730758                       # number of times the floating registers were read
system.cpu0.num_fp_register_writes           22854210                       # number of times the floating registers were written
system.cpu0.num_cc_register_reads           980460074                       # number of times the CC registers were read
system.cpu0.num_cc_register_writes          367091424                       # number of times the CC registers were written
system.cpu0.num_mem_refs                    191445378                       # number of memory refs
system.cpu0.num_load_insts                  116808803                       # Number of load instructions
system.cpu0.num_store_insts                  74636575                       # Number of store instructions
system.cpu0.num_idle_cycles                  0.002000                       # Number of idle cycles
system.cpu0.num_busy_cycles              1582147131.998000                       # Number of busy cycles
system.cpu0.not_idle_fraction                1.000000                       # Percentage of non-idle cycles
system.cpu0.idle_fraction                    0.000000                       # Percentage of idle cycles
system.cpu0.Branches                        156076225                       # Number of branches fetched
system.cpu0.op_class::No_OpClass             23648492      1.93%      1.93% # Class of executed instruction
system.cpu0.op_class::IntAlu                886863277     72.30%     74.23% # Class of executed instruction
system.cpu0.op_class::IntMult                     343      0.00%     74.23% # Class of executed instruction
system.cpu0.op_class::IntDiv                101817749      8.30%     82.53% # Class of executed instruction
system.cpu0.op_class::FloatAdd               22853424      1.86%     84.39% # Class of executed instruction
system.cpu0.op_class::FloatCmp                      0      0.00%     84.39% # Class of executed instruction
system.cpu0.op_class::FloatCvt                      0      0.00%     84.39% # Class of executed instruction
system.cpu0.op_class::FloatMult                     0      0.00%     84.39% # Class of executed instruction
system.cpu0.op_class::FloatDiv                      0      0.00%     84.39% # Class of executed instruction
system.cpu0.op_class::FloatSqrt                     0      0.00%     84.39% # Class of executed instruction
system.cpu0.op_class::SimdAdd                       0      0.00%     84.39% # Class of executed instruction
system.cpu0.op_class::SimdAddAcc                    0      0.00%     84.39% # Class of executed instruction
system.cpu0.op_class::SimdAlu                       0      0.00%     84.39% # Class of executed instruction
system.cpu0.op_class::SimdCmp                       0      0.00%     84.39% # Class of executed instruction
system.cpu0.op_class::SimdCvt                       0      0.00%     84.39% # Class of executed instruction
system.cpu0.op_class::SimdMisc                      0      0.00%     84.39% # Class of executed instruction
system.cpu0.op_class::SimdMult                      0      0.00%     84.39% # Class of executed instruction
system.cpu0.op_class::SimdMultAcc                   0      0.00%     84.39% # Class of executed instruction
system.cpu0.op_class::SimdShift                     0      0.00%     84.39% # Class of executed instruction
system.cpu0.op_class::SimdShiftAcc                  0      0.00%     84.39% # Class of executed instruction
system.cpu0.op_class::SimdSqrt                      0      0.00%     84.39% # Class of executed instruction
system.cpu0.op_class::SimdFloatAdd                  0      0.00%     84.39% # Class of executed instruction
system.cpu0.op_class::SimdFloatAlu                  0      0.00%     84.39% # Class of executed instruction
system.cpu0.op_class::SimdFloatCmp                  0      0.00%     84.39% # Class of executed instruction
system.cpu0.op_class::SimdFloatCvt                  0      0.00%     84.39% # Class of executed instruction
system.cpu0.op_class::SimdFloatDiv                  0      0.00%     84.39% # Class of executed instruction
system.cpu0.op_class::SimdFloatMisc                 0      0.00%     84.39% # Class of executed instruction
system.cpu0.op_class::SimdFloatMult                 0      0.00%     84.39% # Class of executed instruction
system.cpu0.op_class::SimdFloatMultAcc              0      0.00%     84.39% # Class of executed instruction
system.cpu0.op_class::SimdFloatSqrt                 0      0.00%     84.39% # Class of executed instruction
system.cpu0.op_class::MemRead               116808803      9.52%     93.92% # Class of executed instruction
system.cpu0.op_class::MemWrite               74636575      6.08%    100.00% # Class of executed instruction
system.cpu0.op_class::IprAccess                     0      0.00%    100.00% # Class of executed instruction
system.cpu0.op_class::InstPrefetch                  0      0.00%    100.00% # Class of executed instruction
system.cpu0.op_class::total                1226628663                       # Class of executed instruction
system.cpu1.apic_clk_domain.clock                8000                       # Clock period in ticks
system.cpu1.numCycles                      1581217186                       # number of cpu cycles simulated
system.cpu1.numWorkItemsStarted                     0                       # number of work items this cpu started
system.cpu1.numWorkItemsCompleted                   0                       # number of work items this cpu completed
system.cpu1.committedInsts                   16277617                       # Number of instructions committed
system.cpu1.committedOps                     32371694                       # Number of ops (including micro ops) committed
system.cpu1.num_int_alu_accesses             25372134                       # Number of integer alu accesses
system.cpu1.num_fp_alu_accesses              17579765                       # Number of float alu accesses
system.cpu1.num_func_calls                      40491                       # number of times a function call or return occured
system.cpu1.num_conditional_control_insts      1783388                       # number of instructions that are conditional controls
system.cpu1.num_int_insts                    25372134                       # number of integer instructions
system.cpu1.num_fp_insts                     17579765                       # number of float instructions
system.cpu1.num_int_register_reads           49037187                       # number of times the integer registers were read
system.cpu1.num_int_register_writes          12986621                       # number of times the integer registers were written
system.cpu1.num_fp_register_reads            24437779                       # number of times the floating registers were read
system.cpu1.num_fp_register_writes           14019328                       # number of times the floating registers were written
system.cpu1.num_cc_register_reads            10720594                       # number of times the CC registers were read
system.cpu1.num_cc_register_writes           10714260                       # number of times the CC registers were written
system.cpu1.num_mem_refs                     10684687                       # number of memory refs
system.cpu1.num_load_insts                    7103938                       # Number of load instructions
system.cpu1.num_store_insts                   3580749                       # Number of store instructions
system.cpu1.num_idle_cycles              1504259701.262720                       # Number of idle cycles
system.cpu1.num_busy_cycles              76957484.737280                       # Number of busy cycles
system.cpu1.not_idle_fraction                0.048670                       # Percentage of non-idle cycles
system.cpu1.idle_fraction                    0.951330                       # Percentage of idle cycles
system.cpu1.Branches                          1845678                       # Number of branches fetched
system.cpu1.op_class::No_OpClass                    2      0.00%      0.00% # Class of executed instruction
system.cpu1.op_class::IntAlu                 14626761     45.18%     45.18% # Class of executed instruction
system.cpu1.op_class::IntMult                   60671      0.19%     45.37% # Class of executed instruction
system.cpu1.op_class::IntDiv                       14      0.00%     45.37% # Class of executed instruction
system.cpu1.op_class::FloatAdd                6999559     21.62%     66.99% # Class of executed instruction
system.cpu1.op_class::FloatCmp                      0      0.00%     66.99% # Class of executed instruction
system.cpu1.op_class::FloatCvt                      0      0.00%     66.99% # Class of executed instruction
system.cpu1.op_class::FloatMult                     0      0.00%     66.99% # Class of executed instruction
system.cpu1.op_class::FloatDiv                      0      0.00%     66.99% # Class of executed instruction
system.cpu1.op_class::FloatSqrt                     0      0.00%     66.99% # Class of executed instruction
system.cpu1.op_class::SimdAdd                       0      0.00%     66.99% # Class of executed instruction
system.cpu1.op_class::SimdAddAcc                    0      0.00%     66.99% # Class of executed instruction
system.cpu1.op_class::SimdAlu                       0      0.00%     66.99% # Class of executed instruction
system.cpu1.op_class::SimdCmp                       0      0.00%     66.99% # Class of executed instruction
system.cpu1.op_class::SimdCvt                       0      0.00%     66.99% # Class of executed instruction
system.cpu1.op_class::SimdMisc                      0      0.00%     66.99% # Class of executed instruction
system.cpu1.op_class::SimdMult                      0      0.00%     66.99% # Class of executed instruction
system.cpu1.op_class::SimdMultAcc                   0      0.00%     66.99% # Class of executed instruction
system.cpu1.op_class::SimdShift                     0      0.00%     66.99% # Class of executed instruction
system.cpu1.op_class::SimdShiftAcc                  0      0.00%     66.99% # Class of executed instruction
system.cpu1.op_class::SimdSqrt                      0      0.00%     66.99% # Class of executed instruction
system.cpu1.op_class::SimdFloatAdd                  0      0.00%     66.99% # Class of executed instruction
system.cpu1.op_class::SimdFloatAlu                  0      0.00%     66.99% # Class of executed instruction
system.cpu1.op_class::SimdFloatCmp                  0      0.00%     66.99% # Class of executed instruction
system.cpu1.op_class::SimdFloatCvt                  0      0.00%     66.99% # Class of executed instruction
system.cpu1.op_class::SimdFloatDiv                  0      0.00%     66.99% # Class of executed instruction
system.cpu1.op_class::SimdFloatMisc                 0      0.00%     66.99% # Class of executed instruction
system.cpu1.op_class::SimdFloatMult                 0      0.00%     66.99% # Class of executed instruction
system.cpu1.op_class::SimdFloatMultAcc              0      0.00%     66.99% # Class of executed instruction
system.cpu1.op_class::SimdFloatSqrt                 0      0.00%     66.99% # Class of executed instruction
system.cpu1.op_class::MemRead                 7103938     21.94%     88.94% # Class of executed instruction
system.cpu1.op_class::MemWrite                3580749     11.06%    100.00% # Class of executed instruction
system.cpu1.op_class::IprAccess                     0      0.00%    100.00% # Class of executed instruction
system.cpu1.op_class::InstPrefetch                  0      0.00%    100.00% # Class of executed instruction
system.cpu1.op_class::total                  32371694                       # Class of executed instruction
system.cpu2.apic_clk_domain.clock                8000                       # Clock period in ticks
system.cpu2.numCycles                      1581867152                       # number of cpu cycles simulated
system.cpu2.numWorkItemsStarted                     0                       # number of work items this cpu started
system.cpu2.numWorkItemsCompleted                   0                       # number of work items this cpu completed
system.cpu2.committedInsts                   16277617                       # Number of instructions committed
system.cpu2.committedOps                     32371694                       # Number of ops (including micro ops) committed
system.cpu2.num_int_alu_accesses             25372134                       # Number of integer alu accesses
system.cpu2.num_fp_alu_accesses              17579765                       # Number of float alu accesses
system.cpu2.num_func_calls                      40491                       # number of times a function call or return occured
system.cpu2.num_conditional_control_insts      1783388                       # number of instructions that are conditional controls
system.cpu2.num_int_insts                    25372134                       # number of integer instructions
system.cpu2.num_fp_insts                     17579765                       # number of float instructions
system.cpu2.num_int_register_reads           49037187                       # number of times the integer registers were read
system.cpu2.num_int_register_writes          12986621                       # number of times the integer registers were written
system.cpu2.num_fp_register_reads            24437779                       # number of times the floating registers were read
system.cpu2.num_fp_register_writes           14019328                       # number of times the floating registers were written
system.cpu2.num_cc_register_reads            10720594                       # number of times the CC registers were read
system.cpu2.num_cc_register_writes           10714260                       # number of times the CC registers were written
system.cpu2.num_mem_refs                     10684687                       # number of memory refs
system.cpu2.num_load_insts                    7103938                       # Number of load instructions
system.cpu2.num_store_insts                   3580749                       # Number of store instructions
system.cpu2.num_idle_cycles              1504228947.447654                       # Number of idle cycles
system.cpu2.num_busy_cycles              77638204.552345                       # Number of busy cycles
system.cpu2.not_idle_fraction                0.049080                       # Percentage of non-idle cycles
system.cpu2.idle_fraction                    0.950920                       # Percentage of idle cycles
system.cpu2.Branches                          1845678                       # Number of branches fetched
system.cpu2.op_class::No_OpClass                    2      0.00%      0.00% # Class of executed instruction
system.cpu2.op_class::IntAlu                 14626761     45.18%     45.18% # Class of executed instruction
system.cpu2.op_class::IntMult                   60671      0.19%     45.37% # Class of executed instruction
system.cpu2.op_class::IntDiv                       14      0.00%     45.37% # Class of executed instruction
system.cpu2.op_class::FloatAdd                6999559     21.62%     66.99% # Class of executed instruction
system.cpu2.op_class::FloatCmp                      0      0.00%     66.99% # Class of executed instruction
system.cpu2.op_class::FloatCvt                      0      0.00%     66.99% # Class of executed instruction
system.cpu2.op_class::FloatMult                     0      0.00%     66.99% # Class of executed instruction
system.cpu2.op_class::FloatDiv                      0      0.00%     66.99% # Class of executed instruction
system.cpu2.op_class::FloatSqrt                     0      0.00%     66.99% # Class of executed instruction
system.cpu2.op_class::SimdAdd                       0      0.00%     66.99% # Class of executed instruction
system.cpu2.op_class::SimdAddAcc                    0      0.00%     66.99% # Class of executed instruction
system.cpu2.op_class::SimdAlu                       0      0.00%     66.99% # Class of executed instruction
system.cpu2.op_class::SimdCmp                       0      0.00%     66.99% # Class of executed instruction
system.cpu2.op_class::SimdCvt                       0      0.00%     66.99% # Class of executed instruction
system.cpu2.op_class::SimdMisc                      0      0.00%     66.99% # Class of executed instruction
system.cpu2.op_class::SimdMult                      0      0.00%     66.99% # Class of executed instruction
system.cpu2.op_class::SimdMultAcc                   0      0.00%     66.99% # Class of executed instruction
system.cpu2.op_class::SimdShift                     0      0.00%     66.99% # Class of executed instruction
system.cpu2.op_class::SimdShiftAcc                  0      0.00%     66.99% # Class of executed instruction
system.cpu2.op_class::SimdSqrt                      0      0.00%     66.99% # Class of executed instruction
system.cpu2.op_class::SimdFloatAdd                  0      0.00%     66.99% # Class of executed instruction
system.cpu2.op_class::SimdFloatAlu                  0      0.00%     66.99% # Class of executed instruction
system.cpu2.op_class::SimdFloatCmp                  0      0.00%     66.99% # Class of executed instruction
system.cpu2.op_class::SimdFloatCvt                  0      0.00%     66.99% # Class of executed instruction
system.cpu2.op_class::SimdFloatDiv                  0      0.00%     66.99% # Class of executed instruction
system.cpu2.op_class::SimdFloatMisc                 0      0.00%     66.99% # Class of executed instruction
system.cpu2.op_class::SimdFloatMult                 0      0.00%     66.99% # Class of executed instruction
system.cpu2.op_class::SimdFloatMultAcc              0      0.00%     66.99% # Class of executed instruction
system.cpu2.op_class::SimdFloatSqrt                 0      0.00%     66.99% # Class of executed instruction
system.cpu2.op_class::MemRead                 7103938     21.94%     88.94% # Class of executed instruction
system.cpu2.op_class::MemWrite                3580749     11.06%    100.00% # Class of executed instruction
system.cpu2.op_class::IprAccess                     0      0.00%    100.00% # Class of executed instruction
system.cpu2.op_class::InstPrefetch                  0      0.00%    100.00% # Class of executed instruction
system.cpu2.op_class::total                  32371694                       # Class of executed instruction
system.ruby.clk_domain.clock                      500                       # Clock period in ticks
system.ruby.delayHist::bucket_size                  8                       # delay histogram for all message
system.ruby.delayHist::max_bucket                  79                       # delay histogram for all message
system.ruby.delayHist::samples                9043207                       # delay histogram for all message
system.ruby.delayHist::mean                  1.167663                       # delay histogram for all message
system.ruby.delayHist::stdev                 2.878727                       # delay histogram for all message
system.ruby.delayHist                    |     7772909     85.95%     85.95% |     1256476     13.89%     99.85% |       13276      0.15%     99.99% |         545      0.01%    100.00% |           0      0.00%    100.00% |           0      0.00%    100.00% |           0      0.00%    100.00% |           0      0.00%    100.00% |           0      0.00%    100.00% |           1      0.00%    100.00% # delay histogram for all message
system.ruby.delayHist::total                  9043207                       # delay histogram for all message
system.ruby.outstanding_req_hist::bucket_size            1                      
system.ruby.outstanding_req_hist::max_bucket            9                      
system.ruby.outstanding_req_hist::samples    821076840                      
system.ruby.outstanding_req_hist::mean       1.000269                      
system.ruby.outstanding_req_hist::gmean      1.000187                      
system.ruby.outstanding_req_hist::stdev      0.016413                      
system.ruby.outstanding_req_hist         |           0      0.00%      0.00% |   820855594     99.97%     99.97% |      221246      0.03%    100.00% |           0      0.00%    100.00% |           0      0.00%    100.00% |           0      0.00%    100.00% |           0      0.00%    100.00% |           0      0.00%    100.00% |           0      0.00%    100.00% |           0      0.00%    100.00%
system.ruby.outstanding_req_hist::total     821076840                      
system.ruby.latency_hist::bucket_size             128                      
system.ruby.latency_hist::max_bucket             1279                      
system.ruby.latency_hist::samples           821076840                      
system.ruby.latency_hist::mean               1.115633                      
system.ruby.latency_hist::gmean              1.006746                      
system.ruby.latency_hist::stdev              4.211969                      
system.ruby.latency_hist                 |   820986965     99.99%     99.99% |       62289      0.01%    100.00% |        5788      0.00%    100.00% |       10860      0.00%    100.00% |        9388      0.00%    100.00% |        1401      0.00%    100.00% |          19      0.00%    100.00% |          57      0.00%    100.00% |          68      0.00%    100.00% |           5      0.00%    100.00%
system.ruby.latency_hist::total             821076840                      
system.ruby.hit_latency_hist::bucket_size          128                      
system.ruby.hit_latency_hist::max_bucket         1279                      
system.ruby.hit_latency_hist::samples       821076840                      
system.ruby.hit_latency_hist::mean           1.115633                      
system.ruby.hit_latency_hist::gmean          1.006746                      
system.ruby.hit_latency_hist::stdev          4.211969                      
system.ruby.hit_latency_hist             |   820986965     99.99%     99.99% |       62289      0.01%    100.00% |        5788      0.00%    100.00% |       10860      0.00%    100.00% |        9388      0.00%    100.00% |        1401      0.00%    100.00% |          19      0.00%    100.00% |          57      0.00%    100.00% |          68      0.00%    100.00% |           5      0.00%    100.00%
system.ruby.hit_latency_hist::total         821076840                      
system.ruby.l0_cntrl0.Dcache.demand_hits    190871697                       # Number of cache demand hits
system.ruby.l0_cntrl0.Dcache.demand_misses       573743                       # Number of cache demand misses
system.ruby.l0_cntrl0.Dcache.demand_accesses    191445440                       # Number of cache demand accesses
system.ruby.l0_cntrl0.Icache.demand_hits    566332196                       # Number of cache demand hits
system.ruby.l0_cntrl0.Icache.demand_misses         3092                       # Number of cache demand misses
system.ruby.l0_cntrl0.Icache.demand_accesses    566335288                       # Number of cache demand accesses
system.ruby.l0_cntrl0.Zcache.demand_hits            0                       # Number of cache demand hits
system.ruby.l0_cntrl0.Zcache.demand_misses            0                       # Number of cache demand misses
system.ruby.l0_cntrl0.Zcache.demand_accesses            0                       # Number of cache demand accesses
system.ruby.l0_cntrl1.Dcache.demand_hits     10344269                       # Number of cache demand hits
system.ruby.l0_cntrl1.Dcache.demand_misses       451010                       # Number of cache demand misses
system.ruby.l0_cntrl1.Dcache.demand_accesses     10795279                       # Number of cache demand accesses
system.ruby.l0_cntrl1.Icache.demand_hits     20852034                       # Number of cache demand hits
system.ruby.l0_cntrl1.Icache.demand_misses          743                       # Number of cache demand misses
system.ruby.l0_cntrl1.Icache.demand_accesses     20852777                       # Number of cache demand accesses
system.ruby.l0_cntrl1.Zcache.demand_hits            0                       # Number of cache demand hits
system.ruby.l0_cntrl1.Zcache.demand_misses            0                       # Number of cache demand misses
system.ruby.l0_cntrl1.Zcache.demand_accesses            0                       # Number of cache demand accesses
system.ruby.l0_cntrl2.Dcache.demand_hits     10342110                       # Number of cache demand hits
system.ruby.l0_cntrl2.Dcache.demand_misses       453169                       # Number of cache demand misses
system.ruby.l0_cntrl2.Dcache.demand_accesses     10795279                       # Number of cache demand accesses
system.ruby.l0_cntrl2.Icache.demand_hits     20852012                       # Number of cache demand hits
system.ruby.l0_cntrl2.Icache.demand_misses          765                       # Number of cache demand misses
system.ruby.l0_cntrl2.Icache.demand_accesses     20852777                       # Number of cache demand accesses
system.ruby.l0_cntrl2.Zcache.demand_hits            0                       # Number of cache demand hits
system.ruby.l0_cntrl2.Zcache.demand_misses            0                       # Number of cache demand misses
system.ruby.l0_cntrl2.Zcache.demand_accesses            0                       # Number of cache demand accesses
system.ruby.l1_cntrl0.cache.demand_hits           165                       # Number of cache demand hits
system.ruby.l1_cntrl0.cache.demand_misses       576670                       # Number of cache demand misses
system.ruby.l1_cntrl0.cache.demand_accesses       576835                       # Number of cache demand accesses
system.ruby.l1_cntrl1.cache.demand_hits         38453                       # Number of cache demand hits
system.ruby.l1_cntrl1.cache.demand_misses       413300                       # Number of cache demand misses
system.ruby.l1_cntrl1.cache.demand_accesses       451753                       # Number of cache demand accesses
system.ruby.l1_cntrl2.cache.demand_hits         39356                       # Number of cache demand hits
system.ruby.l1_cntrl2.cache.demand_misses       414578                       # Number of cache demand misses
system.ruby.l1_cntrl2.cache.demand_accesses       453934                       # Number of cache demand accesses
system.ruby.l2_cntrl0.L2cache.demand_hits       770815                       # Number of cache demand hits
system.ruby.l2_cntrl0.L2cache.demand_misses       633733                       # Number of cache demand misses
system.ruby.l2_cntrl0.L2cache.demand_accesses      1404548                       # Number of cache demand accesses
system.ruby.l2_cntrl0.fully_busy_cycles            73                       # cycles for which number of transistions == max transitions
system.ruby.memctrl_clk_domain.clock             1500                       # Clock period in ticks
system.ruby.network.routers0.percent_links_utilized            0                      
system.ruby.network.routers1.percent_links_utilized            0                      
system.ruby.network.routers2.percent_links_utilized            0                      
system.ruby.network.routers3.percent_links_utilized     0.191619                      
system.ruby.network.routers3.msg_count.Control::0       576670                      
system.ruby.network.routers3.msg_count.Request_Control::2         3700                      
system.ruby.network.routers3.msg_count.Response_Data::1       584029                      
system.ruby.network.routers3.msg_count.Response_Control::1       571895                      
system.ruby.network.routers3.msg_count.Response_Control::2       576654                      
system.ruby.network.routers3.msg_count.Writeback_Data::0       571223                      
system.ruby.network.routers3.msg_count.Writeback_Control::0          599                      
system.ruby.network.routers3.msg_bytes.Control::0      4613360                      
system.ruby.network.routers3.msg_bytes.Request_Control::2        29600                      
system.ruby.network.routers3.msg_bytes.Response_Data::1     42050088                      
system.ruby.network.routers3.msg_bytes.Response_Control::1      4575160                      
system.ruby.network.routers3.msg_bytes.Response_Control::2      4613232                      
system.ruby.network.routers3.msg_bytes.Writeback_Data::0     41128056                      
system.ruby.network.routers3.msg_bytes.Writeback_Control::0         4792                      
system.ruby.network.routers4.percent_links_utilized     0.132851                      
system.ruby.network.routers4.msg_count.Control::0       413300                      
system.ruby.network.routers4.msg_count.Request_Control::2        59645                      
system.ruby.network.routers4.msg_count.Response_Data::1       531977                      
system.ruby.network.routers4.msg_count.Response_Control::1       277664                      
system.ruby.network.routers4.msg_count.Response_Control::2       403596                      
system.ruby.network.routers4.msg_count.Writeback_Data::0       273522                      
system.ruby.network.routers4.msg_count.Writeback_Data::1            6                      
system.ruby.network.routers4.msg_count.Writeback_Control::0         3835                      
system.ruby.network.routers4.msg_bytes.Control::0      3306400                      
system.ruby.network.routers4.msg_bytes.Request_Control::2       477160                      
system.ruby.network.routers4.msg_bytes.Response_Data::1     38302344                      
system.ruby.network.routers4.msg_bytes.Response_Control::1      2221312                      
system.ruby.network.routers4.msg_bytes.Response_Control::2      3228768                      
system.ruby.network.routers4.msg_bytes.Writeback_Data::0     19693584                      
system.ruby.network.routers4.msg_bytes.Writeback_Data::1          432                      
system.ruby.network.routers4.msg_bytes.Writeback_Control::0        30680                      
system.ruby.network.routers5.percent_links_utilized     0.134336                      
system.ruby.network.routers5.msg_count.Control::0       414578                      
system.ruby.network.routers5.msg_count.Request_Control::2        63443                      
system.ruby.network.routers5.msg_count.Response_Data::1       540745                      
system.ruby.network.routers5.msg_count.Response_Control::1       278757                      
system.ruby.network.routers5.msg_count.Response_Control::2       401207                      
system.ruby.network.routers5.msg_count.Writeback_Data::0       274737                      
system.ruby.network.routers5.msg_count.Writeback_Data::1           57                      
system.ruby.network.routers5.msg_count.Writeback_Control::0         3712                      
system.ruby.network.routers5.msg_bytes.Control::0      3316624                      
system.ruby.network.routers5.msg_bytes.Request_Control::2       507544                      
system.ruby.network.routers5.msg_bytes.Response_Data::1     38933640                      
system.ruby.network.routers5.msg_bytes.Response_Control::1      2230056                      
system.ruby.network.routers5.msg_bytes.Response_Control::2      3209656                      
system.ruby.network.routers5.msg_bytes.Writeback_Data::0     19781064                      
system.ruby.network.routers5.msg_bytes.Writeback_Data::1         4104                      
system.ruby.network.routers5.msg_bytes.Writeback_Control::0        29696                      
system.ruby.network.routers6.percent_links_utilized     0.529664                      
system.ruby.network.routers6.msg_count.Control::0      1908206                      
system.ruby.network.routers6.msg_count.Request_Control::2       126498                      
system.ruby.network.routers6.msg_count.Response_Data::1      2079457                      
system.ruby.network.routers6.msg_count.Response_Control::1      1304931                      
system.ruby.network.routers6.msg_count.Response_Control::2      1381457                      
system.ruby.network.routers6.msg_count.Writeback_Data::0      1119482                      
system.ruby.network.routers6.msg_count.Writeback_Data::1           63                      
system.ruby.network.routers6.msg_count.Writeback_Control::0         8146                      
system.ruby.network.routers6.msg_bytes.Control::0     15265648                      
system.ruby.network.routers6.msg_bytes.Request_Control::2      1011984                      
system.ruby.network.routers6.msg_bytes.Response_Data::1    149720904                      
system.ruby.network.routers6.msg_bytes.Response_Control::1     10439448                      
system.ruby.network.routers6.msg_bytes.Response_Control::2     11051656                      
system.ruby.network.routers6.msg_bytes.Writeback_Data::0     80602704                      
system.ruby.network.routers6.msg_bytes.Writeback_Data::1         4536                      
system.ruby.network.routers6.msg_bytes.Writeback_Control::0        65168                      
system.ruby.network.routers7.percent_links_utilized     0.107298                      
system.ruby.network.routers7.msg_count.Control::0       503658                      
system.ruby.network.routers7.msg_count.Response_Data::1       678901                      
system.ruby.network.routers7.msg_count.Response_Control::1       176713                      
system.ruby.network.routers7.msg_bytes.Control::0      4029264                      
system.ruby.network.routers7.msg_bytes.Response_Data::1     48880872                      
system.ruby.network.routers7.msg_bytes.Response_Control::1      1413704                      
system.ruby.network.routers8.percent_links_utilized     0.137042                      
system.ruby.network.routers8.msg_count.Control::0      1908206                      
system.ruby.network.routers8.msg_count.Request_Control::2       126788                      
system.ruby.network.routers8.msg_count.Response_Data::1      2209532                      
system.ruby.network.routers8.msg_count.Response_Control::1      1304980                      
system.ruby.network.routers8.msg_count.Response_Control::2      1381457                      
system.ruby.network.routers8.msg_count.Writeback_Data::0      1119482                      
system.ruby.network.routers8.msg_count.Writeback_Data::1           63                      
system.ruby.network.routers8.msg_count.Writeback_Control::0         8146                      
system.ruby.network.routers8.msg_bytes.Control::0     15265648                      
system.ruby.network.routers8.msg_bytes.Request_Control::2      1014304                      
system.ruby.network.routers8.msg_bytes.Response_Data::1    159086304                      
system.ruby.network.routers8.msg_bytes.Response_Control::1     10439840                      
system.ruby.network.routers8.msg_bytes.Response_Control::2     11051656                      
system.ruby.network.routers8.msg_bytes.Writeback_Data::0     80602704                      
system.ruby.network.routers8.msg_bytes.Writeback_Data::1         4536                      
system.ruby.network.routers8.msg_bytes.Writeback_Control::0        65168                      
system.ruby.network.msg_count.Control         5724618                      
system.ruby.network.msg_count.Request_Control       380074                      
system.ruby.network.msg_count.Response_Data      6624641                      
system.ruby.network.msg_count.Response_Control      8059311                      
system.ruby.network.msg_count.Writeback_Data      3358635                      
system.ruby.network.msg_count.Writeback_Control        24438                      
system.ruby.network.msg_byte.Control         45796944                      
system.ruby.network.msg_byte.Request_Control      3040592                      
system.ruby.network.msg_byte.Response_Data    476974152                      
system.ruby.network.msg_byte.Response_Control     64474488                      
system.ruby.network.msg_byte.Writeback_Data    241821720                      
system.ruby.network.msg_byte.Writeback_Control       195504                      
system.ruby.network.routers0.throttle0.link_utilization            0                      
system.ruby.network.routers0.throttle1.link_utilization            0                      
system.ruby.network.routers1.throttle0.link_utilization            0                      
system.ruby.network.routers1.throttle1.link_utilization            0                      
system.ruby.network.routers2.throttle0.link_utilization            0                      
system.ruby.network.routers2.throttle1.link_utilization            0                      
system.ruby.network.routers3.throttle0.link_utilization     0.182201                      
system.ruby.network.routers3.throttle0.msg_count.Request_Control::2         3700                      
system.ruby.network.routers3.throttle0.msg_count.Response_Data::1       576643                      
system.ruby.network.routers3.throttle0.msg_count.Response_Control::1       571888                      
system.ruby.network.routers3.throttle0.msg_bytes.Request_Control::2        29600                      
system.ruby.network.routers3.throttle0.msg_bytes.Response_Data::1     41518296                      
system.ruby.network.routers3.throttle0.msg_bytes.Response_Control::1      4575104                      
system.ruby.network.routers3.throttle1.link_utilization     0.201037                      
system.ruby.network.routers3.throttle1.msg_count.Control::0       576670                      
system.ruby.network.routers3.throttle1.msg_count.Response_Data::1         7386                      
system.ruby.network.routers3.throttle1.msg_count.Response_Control::1            7                      
system.ruby.network.routers3.throttle1.msg_count.Response_Control::2       576654                      
system.ruby.network.routers3.throttle1.msg_count.Writeback_Data::0       571223                      
system.ruby.network.routers3.throttle1.msg_count.Writeback_Control::0          599                      
system.ruby.network.routers3.throttle1.msg_bytes.Control::0      4613360                      
system.ruby.network.routers3.throttle1.msg_bytes.Response_Data::1       531792                      
system.ruby.network.routers3.throttle1.msg_bytes.Response_Control::1           56                      
system.ruby.network.routers3.throttle1.msg_bytes.Response_Control::2      4613232                      
system.ruby.network.routers3.throttle1.msg_bytes.Writeback_Data::0     41128056                      
system.ruby.network.routers3.throttle1.msg_bytes.Writeback_Control::0         4792                      
system.ruby.network.routers4.throttle0.link_utilization     0.128202                      
system.ruby.network.routers4.throttle0.msg_count.Request_Control::2        59645                      
system.ruby.network.routers4.throttle0.msg_count.Response_Data::1       413296                      
system.ruby.network.routers4.throttle0.msg_count.Response_Control::1       277367                      
system.ruby.network.routers4.throttle0.msg_bytes.Request_Control::2       477160                      
system.ruby.network.routers4.throttle0.msg_bytes.Response_Data::1     29757312                      
system.ruby.network.routers4.throttle0.msg_bytes.Response_Control::1      2218936                      
system.ruby.network.routers4.throttle1.link_utilization     0.137500                      
system.ruby.network.routers4.throttle1.msg_count.Control::0       413300                      
system.ruby.network.routers4.throttle1.msg_count.Response_Data::1       118681                      
system.ruby.network.routers4.throttle1.msg_count.Response_Control::1          297                      
system.ruby.network.routers4.throttle1.msg_count.Response_Control::2       403596                      
system.ruby.network.routers4.throttle1.msg_count.Writeback_Data::0       273522                      
system.ruby.network.routers4.throttle1.msg_count.Writeback_Data::1            6                      
system.ruby.network.routers4.throttle1.msg_count.Writeback_Control::0         3835                      
system.ruby.network.routers4.throttle1.msg_bytes.Control::0      3306400                      
system.ruby.network.routers4.throttle1.msg_bytes.Response_Data::1      8545032                      
system.ruby.network.routers4.throttle1.msg_bytes.Response_Control::1         2376                      
system.ruby.network.routers4.throttle1.msg_bytes.Response_Control::2      3228768                      
system.ruby.network.routers4.throttle1.msg_bytes.Writeback_Data::0     19693584                      
system.ruby.network.routers4.throttle1.msg_bytes.Writeback_Data::1          432                      
system.ruby.network.routers4.throttle1.msg_bytes.Writeback_Control::0        30680                      
system.ruby.network.routers5.throttle0.link_utilization     0.128720                      
system.ruby.network.routers5.throttle0.msg_count.Request_Control::2        63443                      
system.ruby.network.routers5.throttle0.msg_count.Response_Data::1       414575                      
system.ruby.network.routers5.throttle0.msg_count.Response_Control::1       278456                      
system.ruby.network.routers5.throttle0.msg_bytes.Request_Control::2       507544                      
system.ruby.network.routers5.throttle0.msg_bytes.Response_Data::1     29849400                      
system.ruby.network.routers5.throttle0.msg_bytes.Response_Control::1      2227648                      
system.ruby.network.routers5.throttle1.link_utilization     0.139951                      
system.ruby.network.routers5.throttle1.msg_count.Control::0       414578                      
system.ruby.network.routers5.throttle1.msg_count.Response_Data::1       126170                      
system.ruby.network.routers5.throttle1.msg_count.Response_Control::1          301                      
system.ruby.network.routers5.throttle1.msg_count.Response_Control::2       401207                      
system.ruby.network.routers5.throttle1.msg_count.Writeback_Data::0       274737                      
system.ruby.network.routers5.throttle1.msg_count.Writeback_Data::1           57                      
system.ruby.network.routers5.throttle1.msg_count.Writeback_Control::0         3712                      
system.ruby.network.routers5.throttle1.msg_bytes.Control::0      3316624                      
system.ruby.network.routers5.throttle1.msg_bytes.Response_Data::1      9084240                      
system.ruby.network.routers5.throttle1.msg_bytes.Response_Control::1         2408                      
system.ruby.network.routers5.throttle1.msg_bytes.Response_Control::2      3209656                      
system.ruby.network.routers5.throttle1.msg_bytes.Writeback_Data::0     19781064                      
system.ruby.network.routers5.throttle1.msg_bytes.Writeback_Data::1         4104                      
system.ruby.network.routers5.throttle1.msg_bytes.Writeback_Control::0        29696                      
system.ruby.network.routers6.throttle0.link_utilization     0.591429                      
system.ruby.network.routers6.throttle0.msg_count.Control::0      1404548                      
system.ruby.network.routers6.throttle0.msg_count.Response_Data::1       629775                      
system.ruby.network.routers6.throttle0.msg_count.Response_Control::1       176534                      
system.ruby.network.routers6.throttle0.msg_count.Response_Control::2      1381457                      
system.ruby.network.routers6.throttle0.msg_count.Writeback_Data::0      1119482                      
system.ruby.network.routers6.throttle0.msg_count.Writeback_Data::1           63                      
system.ruby.network.routers6.throttle0.msg_count.Writeback_Control::0         8146                      
system.ruby.network.routers6.throttle0.msg_bytes.Control::0     11236384                      
system.ruby.network.routers6.throttle0.msg_bytes.Response_Data::1     45343800                      
system.ruby.network.routers6.throttle0.msg_bytes.Response_Control::1      1412272                      
system.ruby.network.routers6.throttle0.msg_bytes.Response_Control::2     11051656                      
system.ruby.network.routers6.throttle0.msg_bytes.Writeback_Data::0     80602704                      
system.ruby.network.routers6.throttle0.msg_bytes.Writeback_Data::1         4536                      
system.ruby.network.routers6.throttle0.msg_bytes.Writeback_Control::0        65168                      
system.ruby.network.routers6.throttle1.link_utilization     0.467899                      
system.ruby.network.routers6.throttle1.msg_count.Control::0       503658                      
system.ruby.network.routers6.throttle1.msg_count.Request_Control::2       126498                      
system.ruby.network.routers6.throttle1.msg_count.Response_Data::1      1449682                      
system.ruby.network.routers6.throttle1.msg_count.Response_Control::1      1128397                      
system.ruby.network.routers6.throttle1.msg_bytes.Control::0      4029264                      
system.ruby.network.routers6.throttle1.msg_bytes.Request_Control::2      1011984                      
system.ruby.network.routers6.throttle1.msg_bytes.Response_Data::1    104377104                      
system.ruby.network.routers6.throttle1.msg_bytes.Response_Control::1      9027176                      
system.ruby.network.routers7.throttle0.link_utilization     0.065783                      
system.ruby.network.routers7.throttle0.msg_count.Control::0       503658                      
system.ruby.network.routers7.throttle0.msg_count.Response_Data::1       175243                      
system.ruby.network.routers7.throttle0.msg_count.Response_Control::1          735                      
system.ruby.network.routers7.throttle0.msg_bytes.Control::0      4029264                      
system.ruby.network.routers7.throttle0.msg_bytes.Response_Data::1     12617496                      
system.ruby.network.routers7.throttle0.msg_bytes.Response_Control::1         5880                      
system.ruby.network.routers7.throttle1.link_utilization     0.148814                      
[...]
system.ruby.L0Cache_Controller.IS.Data_Exclusive::total       758611                      
system.ruby.L0Cache_Controller.IM.Data_Exclusive |      572529     99.99%     99.99% |          15      0.00%    100.00% |          15      0.00%    100.00%
system.ruby.L0Cache_Controller.IM.Data_Exclusive::total       572559                      
system.ruby.L0Cache_Controller.SM.Data_Exclusive |          27     79.41%     79.41% |           4     11.76%     91.18% |           3      8.82%    100.00%
system.ruby.L0Cache_Controller.SM.Data_Exclusive::total           34                      
system.ruby.L1Cache_Controller.Load      |        4279      0.47%      0.47% |      451734     49.64%     50.12% |      453916     49.88%    100.00%
system.ruby.L1Cache_Controller.Load::total       909929                      
system.ruby.L1Cache_Controller.Store     |      572556     99.99%     99.99% |          19      0.00%    100.00% |          18      0.00%    100.00%
system.ruby.L1Cache_Controller.Store::total       572593                      
system.ruby.L1Cache_Controller.WriteBack |      572487     44.30%     44.30% |      365208     28.26%     72.56% |      354581     27.44%    100.00%
system.ruby.L1Cache_Controller.WriteBack::total      1292276                      
system.ruby.L1Cache_Controller.L0_DataAck |        1166     12.15%     12.15% |        4133     43.07%     55.23% |        4296     44.77%    100.00%
system.ruby.L1Cache_Controller.L0_DataAck::total         9595                      
system.ruby.L1Cache_Controller.Inv       |           7      1.05%      1.05% |         303     45.36%     46.41% |         358     53.59%    100.00%
system.ruby.L1Cache_Controller.Inv::total          668                      
system.ruby.L1Cache_Controller.L0_Invalidate_Own |        6208      2.00%      2.00% |      153860     49.54%     51.54% |      150518     48.46%    100.00%
system.ruby.L1Cache_Controller.L0_Invalidate_Own::total       310586                      
system.ruby.L1Cache_Controller.L0_Invalidate_Else |         668      1.27%      1.27% |       11716     22.21%     23.48% |       40364     76.52%    100.00%
system.ruby.L1Cache_Controller.L0_Invalidate_Else::total        52748                      
system.ruby.L1Cache_Controller.L1_Replacement |      572540     41.13%     41.13% |      409194     29.39%     70.52% |      410419     29.48%    100.00%
system.ruby.L1Cache_Controller.L1_Replacement::total      1392153                      
system.ruby.L1Cache_Controller.Fwd_GETX  |           0      0.00%      0.00% |           3    100.00%    100.00% |           0      0.00%    100.00%
system.ruby.L1Cache_Controller.Fwd_GETX::total            3                      
system.ruby.L1Cache_Controller.Fwd_GETS  |        3693      2.93%      2.93% |       59339     47.05%     49.98% |       63085     50.02%    100.00%
system.ruby.L1Cache_Controller.Fwd_GETS::total       126117                      
system.ruby.L1Cache_Controller.Data      |           1     33.33%     33.33% |           1     33.33%     66.67% |           1     33.33%    100.00%
system.ruby.L1Cache_Controller.Data::total            3                      
system.ruby.L1Cache_Controller.Data_Exclusive |        4097      0.60%      0.60% |      336850     49.34%     49.94% |      341816     50.06%    100.00%
system.ruby.L1Cache_Controller.Data_Exclusive::total       682763                      
system.ruby.L1Cache_Controller.DataS_fromL1 |          17      0.01%      0.01% |       66727     52.91%     52.92% |       59373     47.08%    100.00%
system.ruby.L1Cache_Controller.DataS_fromL1::total       126117                      
system.ruby.L1Cache_Controller.Data_all_Acks |      572528     96.12%     96.12% |        9718      1.63%     97.75% |       13385      2.25%    100.00%
system.ruby.L1Cache_Controller.Data_all_Acks::total       595631                      
system.ruby.L1Cache_Controller.L0_Ack    |        2272      1.32%      1.32% |       78655     45.71%     47.03% |       91145     52.97%    100.00%
system.ruby.L1Cache_Controller.L0_Ack::total       172072                      
system.ruby.L1Cache_Controller.Ack       |          38     82.61%     82.61% |           5     10.87%     93.48% |           3      6.52%    100.00%
system.ruby.L1Cache_Controller.Ack::total           46                      
system.ruby.L1Cache_Controller.Ack_all   |          28     75.68%     75.68% |           5     13.51%     89.19% |           4     10.81%    100.00%
system.ruby.L1Cache_Controller.Ack_all::total           37                      
system.ruby.L1Cache_Controller.WB_Ack    |      571822     50.71%     50.71% |      277357     24.60%     75.31% |      278449     24.69%    100.00%
system.ruby.L1Cache_Controller.WB_Ack::total      1127628                      
system.ruby.L1Cache_Controller.NP.Load   |        4130      0.50%      0.50% |      413281     49.67%     50.17% |      414560     49.83%    100.00%
system.ruby.L1Cache_Controller.NP.Load::total       831971                      
system.ruby.L1Cache_Controller.NP.Store  |      572513     99.99%     99.99% |          15      0.00%    100.00% |          15      0.00%    100.00%
system.ruby.L1Cache_Controller.NP.Store::total       572543                      
system.ruby.L1Cache_Controller.NP.Inv    |           0      0.00%      0.00% |         283     50.00%     50.00% |         283     50.00%    100.00%
system.ruby.L1Cache_Controller.NP.Inv::total          566                      
system.ruby.L1Cache_Controller.I.L1_Replacement |           0      0.00%      0.00% |           2    100.00%    100.00% |           0      0.00%    100.00%
system.ruby.L1Cache_Controller.I.L1_Replacement::total            2                      
system.ruby.L1Cache_Controller.S.Load    |           3    100.00%    100.00% |           0      0.00%    100.00% |           0      0.00%    100.00%
system.ruby.L1Cache_Controller.S.Load::total            3                      
system.ruby.L1Cache_Controller.S.Store   |          27     79.41%     79.41% |           4     11.76%     91.18% |           3      8.82%    100.00%
system.ruby.L1Cache_Controller.S.Store::total           34                      
system.ruby.L1Cache_Controller.S.L0_Invalidate_Own |           0      0.00%      0.00% |       72804     50.64%     50.64% |       70966     49.36%    100.00%
system.ruby.L1Cache_Controller.S.L0_Invalidate_Own::total       143770                      
system.ruby.L1Cache_Controller.S.L0_Invalidate_Else |           2     11.11%     11.11% |           5     27.78%     38.89% |          11     61.11%    100.00%
system.ruby.L1Cache_Controller.S.L0_Invalidate_Else::total           18                      
system.ruby.L1Cache_Controller.SS.Load   |          12      0.57%      0.57% |          23      1.09%      1.66% |        2072     98.34%    100.00%
system.ruby.L1Cache_Controller.SS.Load::total         2107                      
system.ruby.L1Cache_Controller.SS.Inv    |           7     17.95%     17.95% |          14     35.90%     53.85% |          18     46.15%    100.00%
system.ruby.L1Cache_Controller.SS.Inv::total           39                      
system.ruby.L1Cache_Controller.SS.L1_Replacement |         718      0.27%      0.27% |      131835     49.84%     50.11% |      131970     49.89%    100.00%
system.ruby.L1Cache_Controller.SS.L1_Replacement::total       264523                      
system.ruby.L1Cache_Controller.E.WriteBack |         865      0.13%      0.13% |      326783     50.67%     50.80% |      317339     49.20%    100.00%
system.ruby.L1Cache_Controller.E.WriteBack::total       644987                      
system.ruby.L1Cache_Controller.E.L0_Invalidate_Own |        2637     23.97%     23.97% |        4107     37.34%     61.31% |        4256     38.69%    100.00%
system.ruby.L1Cache_Controller.E.L0_Invalidate_Own::total        11000                      
system.ruby.L1Cache_Controller.E.L0_Invalidate_Else |           7      0.03%      0.03% |        5848     22.47%     22.50% |       20167     77.50%    100.00%
system.ruby.L1Cache_Controller.E.L0_Invalidate_Else::total        26022                      
system.ruby.L1Cache_Controller.EE.Load   |           0      0.00%      0.00% |           0      0.00%      0.00% |          19    100.00%    100.00%
system.ruby.L1Cache_Controller.EE.Load::total           19                      
system.ruby.L1Cache_Controller.EE.L1_Replacement |        2220     99.78%     99.78% |           2      0.09%     99.87% |           3      0.13%    100.00%
system.ruby.L1Cache_Controller.EE.L1_Replacement::total         2225                      
system.ruby.L1Cache_Controller.EE.Fwd_GETS |           7      0.03%      0.03% |        5844     22.48%     22.51% |       20146     77.49%    100.00%
system.ruby.L1Cache_Controller.EE.Fwd_GETS::total        25997                      
system.ruby.L1Cache_Controller.M.WriteBack |      571622     88.31%     88.31% |       38425      5.94%     94.25% |       37242      5.75%    100.00%
system.ruby.L1Cache_Controller.M.WriteBack::total       647289                      
system.ruby.L1Cache_Controller.M.L0_Invalidate_Own |         467     89.29%     89.29% |          19      3.63%     92.93% |          37      7.07%    100.00%
system.ruby.L1Cache_Controller.M.L0_Invalidate_Own::total          523                      
system.ruby.L1Cache_Controller.M.L0_Invalidate_Else |         325     97.31%     97.31% |           5      1.50%     98.80% |           4      1.20%    100.00%
system.ruby.L1Cache_Controller.M.L0_Invalidate_Else::total          334                      
system.ruby.L1Cache_Controller.MM.Load   |         134      0.18%      0.18% |       38430     50.68%     50.86% |       37265     49.14%    100.00%
system.ruby.L1Cache_Controller.MM.Load::total        75829                      
system.ruby.L1Cache_Controller.MM.Store  |          16    100.00%    100.00% |           0      0.00%    100.00% |           0      0.00%    100.00%
system.ruby.L1Cache_Controller.MM.Store::total           16                      
system.ruby.L1Cache_Controller.MM.Inv    |           0      0.00%      0.00% |           6      9.52%      9.52% |          57     90.48%    100.00%
system.ruby.L1Cache_Controller.MM.Inv::total           63                      
system.ruby.L1Cache_Controller.MM.L1_Replacement |      569602     50.61%     50.61% |      277355     24.64%     75.26% |      278446     24.74%    100.00%
system.ruby.L1Cache_Controller.MM.L1_Replacement::total      1125403                      
system.ruby.L1Cache_Controller.MM.Fwd_GETX |           0      0.00%      0.00% |           3    100.00%    100.00% |           0      0.00%    100.00%
system.ruby.L1Cache_Controller.MM.Fwd_GETX::total            3                      
system.ruby.L1Cache_Controller.MM.Fwd_GETS |        3686      3.68%      3.68% |       53495     53.43%     57.11% |       42939     42.89%    100.00%
system.ruby.L1Cache_Controller.MM.Fwd_GETS::total       100120                      
system.ruby.L1Cache_Controller.IS.Data_Exclusive |        4097      0.60%      0.60% |      336850     49.34%     49.94% |      341816     50.06%    100.00%
system.ruby.L1Cache_Controller.IS.Data_Exclusive::total       682763                      
system.ruby.L1Cache_Controller.IS.DataS_fromL1 |          17      0.01%      0.01% |       66727     52.91%     52.92% |       59373     47.08%    100.00%
system.ruby.L1Cache_Controller.IS.DataS_fromL1::total       126117                      
system.ruby.L1Cache_Controller.IS.Data_all_Acks |          16      0.07%      0.07% |        9704     42.03%     42.09% |       13371     57.91%    100.00%
system.ruby.L1Cache_Controller.IS.Data_all_Acks::total        23091                      
system.ruby.L1Cache_Controller.IM.Data   |           1     33.33%     33.33% |           1     33.33%     66.67% |           1     33.33%    100.00%
system.ruby.L1Cache_Controller.IM.Data::total            3                      
system.ruby.L1Cache_Controller.IM.Data_all_Acks |      572512    100.00%    100.00% |          14      0.00%    100.00% |          14      0.00%    100.00%
system.ruby.L1Cache_Controller.IM.Data_all_Acks::total       572540                      
system.ruby.L1Cache_Controller.SM.Ack    |          38     82.61%     82.61% |           5     10.87%     93.48% |           3      6.52%    100.00%
system.ruby.L1Cache_Controller.SM.Ack::total           46                      
system.ruby.L1Cache_Controller.SM.Ack_all |          28     75.68%     75.68% |           5     13.51%     89.19% |           4     10.81%    100.00%
system.ruby.L1Cache_Controller.SM.Ack_all::total           37                      
system.ruby.L1Cache_Controller.M_I.WB_Ack |      571822     50.71%     50.71% |      277357     24.60%     75.31% |      278449     24.69%    100.00%
system.ruby.L1Cache_Controller.M_I.WB_Ack::total      1127628                      
system.ruby.L1Cache_Controller.S_IL0.L0_Invalidate_Own |           0      0.00%      0.00% |       72804     50.64%     50.64% |       70966     49.36%    100.00%
system.ruby.L1Cache_Controller.S_IL0.L0_Invalidate_Own::total       143770                      
system.ruby.L1Cache_Controller.S_IL0.L0_Invalidate_Else |           2     11.11%     11.11% |           5     27.78%     38.89% |          11     61.11%    100.00%
system.ruby.L1Cache_Controller.S_IL0.L0_Invalidate_Else::total           18                      
system.ruby.L1Cache_Controller.S_IL0.L0_Ack |           2      0.00%      0.00% |       72809     50.64%     50.64% |       70977     49.36%    100.00%
system.ruby.L1Cache_Controller.S_IL0.L0_Ack::total       143788                      
system.ruby.L1Cache_Controller.E_IL0.L0_DataAck |         417      4.75%      4.75% |        4109     46.79%     51.54% |        4255     48.46%    100.00%
system.ruby.L1Cache_Controller.E_IL0.L0_DataAck::total         8781                      
system.ruby.L1Cache_Controller.E_IL0.L0_Invalidate_Own |        2637     23.97%     23.97% |        4107     37.34%     61.31% |        4256     38.69%    100.00%
system.ruby.L1Cache_Controller.E_IL0.L0_Invalidate_Own::total        11000                      
system.ruby.L1Cache_Controller.E_IL0.L0_Invalidate_Else |           7      0.03%      0.03% |        5848     22.47%     22.50% |       20167     77.50%    100.00%
system.ruby.L1Cache_Controller.E_IL0.L0_Invalidate_Else::total        26022                      
system.ruby.L1Cache_Controller.E_IL0.L0_Ack |        2227      7.89%      7.89% |        5846     20.70%     28.59% |       20168     71.41%    100.00%
system.ruby.L1Cache_Controller.E_IL0.L0_Ack::total        28241                      
system.ruby.L1Cache_Controller.M_IL0.L0_DataAck |         749     92.01%     92.01% |          24      2.95%     94.96% |          41      5.04%    100.00%
system.ruby.L1Cache_Controller.M_IL0.L0_DataAck::total          814                      
system.ruby.L1Cache_Controller.M_IL0.L0_Invalidate_Own |         467     89.29%     89.29% |          19      3.63%     92.93% |          37      7.07%    100.00%
system.ruby.L1Cache_Controller.M_IL0.L0_Invalidate_Own::total          523                      
system.ruby.L1Cache_Controller.M_IL0.L0_Invalidate_Else |         325     97.31%     97.31% |           5      1.50%     98.80% |           4      1.20%    100.00%
system.ruby.L1Cache_Controller.M_IL0.L0_Invalidate_Else::total          334                      
system.ruby.L1Cache_Controller.M_IL0.L0_Ack |          43    100.00%    100.00% |           0      0.00%    100.00% |           0      0.00%    100.00%
system.ruby.L1Cache_Controller.M_IL0.L0_Ack::total           43                      
system.ruby.L2Cache_Controller.L1_GETS         832073      0.00%      0.00%
system.ruby.L2Cache_Controller.L1_GETX         572544      0.00%      0.00%
system.ruby.L2Cache_Controller.L1_UPGRADE           34      0.00%      0.00%
system.ruby.L2Cache_Controller.L1_PUTX        1127628      0.00%      0.00%
system.ruby.L2Cache_Controller.L2_Replacement       175241      0.00%      0.00%
system.ruby.L2Cache_Controller.L2_Replacement_clean          737      0.00%      0.00%
system.ruby.L2Cache_Controller.Mem_Data        503658      0.00%      0.00%
system.ruby.L2Cache_Controller.Mem_Ack         175978      0.00%      0.00%
system.ruby.L2Cache_Controller.WB_Data          29759      0.00%      0.00%
system.ruby.L2Cache_Controller.WB_Data_clean        96421      0.00%      0.00%
system.ruby.L2Cache_Controller.Ack                278      0.00%      0.00%
system.ruby.L2Cache_Controller.Ack_all            278      0.00%      0.00%
system.ruby.L2Cache_Controller.Unblock         126117      0.00%      0.00%
system.ruby.L2Cache_Controller.Exclusive_Unblock      1255340      0.00%      0.00%
system.ruby.L2Cache_Controller.NP.L1_GETS        53321      0.00%      0.00%
system.ruby.L2Cache_Controller.NP.L1_GETX       450337      0.00%      0.00%
system.ruby.L2Cache_Controller.SS.L1_GETS        15181      0.00%      0.00%
system.ruby.L2Cache_Controller.SS.L1_GETX            3      0.00%      0.00%
system.ruby.L2Cache_Controller.SS.L1_UPGRADE           34      0.00%      0.00%
system.ruby.L2Cache_Controller.SS.L2_Replacement          174      0.00%      0.00%
system.ruby.L2Cache_Controller.SS.L2_Replacement_clean          104      0.00%      0.00%
system.ruby.L2Cache_Controller.M.L1_GETS       633397      0.00%      0.00%
system.ruby.L2Cache_Controller.M.L1_GETX       122200      0.00%      0.00%
system.ruby.L2Cache_Controller.M.L2_Replacement       175006      0.00%      0.00%
system.ruby.L2Cache_Controller.M.L2_Replacement_clean          631      0.00%      0.00%
system.ruby.L2Cache_Controller.MT.L1_GETS       126117      0.00%      0.00%
system.ruby.L2Cache_Controller.MT.L1_GETX            3      0.00%      0.00%
system.ruby.L2Cache_Controller.MT.L1_PUTX      1127628      0.00%      0.00%
system.ruby.L2Cache_Controller.MT.L2_Replacement           61      0.00%      0.00%
system.ruby.L2Cache_Controller.MT.L2_Replacement_clean            2      0.00%      0.00%
system.ruby.L2Cache_Controller.M_I.Mem_Ack       175978      0.00%      0.00%
system.ruby.L2Cache_Controller.MT_I.WB_Data           61      0.00%      0.00%
system.ruby.L2Cache_Controller.MCT_I.WB_Data            2      0.00%      0.00%
system.ruby.L2Cache_Controller.I_I.Ack            104      0.00%      0.00%
system.ruby.L2Cache_Controller.I_I.Ack_all          104      0.00%      0.00%
system.ruby.L2Cache_Controller.S_I.Ack            174      0.00%      0.00%
system.ruby.L2Cache_Controller.S_I.Ack_all          174      0.00%      0.00%
system.ruby.L2Cache_Controller.ISS.L1_GETS         3955      0.00%      0.00%
system.ruby.L2Cache_Controller.ISS.Mem_Data        49366      0.00%      0.00%
system.ruby.L2Cache_Controller.IS.Mem_Data         3955      0.00%      0.00%
system.ruby.L2Cache_Controller.IM.L1_GETX            1      0.00%      0.00%
system.ruby.L2Cache_Controller.IM.Mem_Data       450337      0.00%      0.00%
system.ruby.L2Cache_Controller.SS_MB.L1_GETS            1      0.00%      0.00%
system.ruby.L2Cache_Controller.SS_MB.Exclusive_Unblock           37      0.00%      0.00%
system.ruby.L2Cache_Controller.MT_MB.L1_GETS           99      0.00%      0.00%
system.ruby.L2Cache_Controller.MT_MB.Exclusive_Unblock      1255303      0.00%      0.00%
system.ruby.L2Cache_Controller.MT_IIB.L1_GETS            2      0.00%      0.00%
system.ruby.L2Cache_Controller.MT_IIB.WB_Data        29683      0.00%      0.00%
system.ruby.L2Cache_Controller.MT_IIB.WB_Data_clean        96339      0.00%      0.00%
system.ruby.L2Cache_Controller.MT_IIB.Unblock           95      0.00%      0.00%
system.ruby.L2Cache_Controller.MT_IB.WB_Data           13      0.00%      0.00%
system.ruby.L2Cache_Controller.MT_IB.WB_Data_clean           82      0.00%      0.00%
system.ruby.L2Cache_Controller.MT_SB.Unblock       126022      0.00%      0.00%

---------- End Simulation Statistics   ----------
