
---------- Begin Simulation Statistics ----------
sim_seconds                                  2.892745                       # Number of seconds simulated
sim_ticks                                2892745009000                       # Number of ticks simulated
final_tick                               2892745009000                       # Number of ticks from beginning of simulation (restored from checkpoints and never reset)
sim_freq                                 1000000000000                       # Frequency of simulated ticks
host_inst_rate                                 145366                       # Simulator instruction rate (inst/s)
host_op_rate                                   403005                       # Simulator op (including micro ops) rate (op/s)
host_tick_rate                              242984768                       # Simulator tick rate (ticks/s)
host_mem_usage                                3328884                       # Number of bytes of host memory used
host_seconds                                 11905.05                       # Real time elapsed on the host
sim_insts                                  1730591189                       # Number of instructions simulated
sim_ops                                    4797788796                       # Number of ops (including micro ops) simulated
system.voltage_domain.voltage                       1                       # Voltage in Volts
system.clk_domain.clock                          1000                       # Clock period in ticks
system.mem_ctrls.bytes_read::ruby.dir_cntrl0    145685696                       # Number of bytes read from this memory
system.mem_ctrls.bytes_read::total          145685696                       # Number of bytes read from this memory
system.mem_ctrls.bytes_written::ruby.dir_cntrl0     95027456                       # Number of bytes written to this memory
system.mem_ctrls.bytes_written::total        95027456                       # Number of bytes written to this memory
system.mem_ctrls.num_reads::ruby.dir_cntrl0      2276339                       # Number of read requests responded to by this memory
system.mem_ctrls.num_reads::total             2276339                       # Number of read requests responded to by this memory
system.mem_ctrls.num_writes::ruby.dir_cntrl0      1484804                       # Number of write requests responded to by this memory
system.mem_ctrls.num_writes::total            1484804                       # Number of write requests responded to by this memory
system.mem_ctrls.bw_read::ruby.dir_cntrl0     50362440                       # Total read bandwidth from this memory (bytes/s)
system.mem_ctrls.bw_read::total              50362440                       # Total read bandwidth from this memory (bytes/s)
system.mem_ctrls.bw_write::ruby.dir_cntrl0     32850270                       # Write bandwidth from this memory (bytes/s)
system.mem_ctrls.bw_write::total             32850270                       # Write bandwidth from this memory (bytes/s)
system.mem_ctrls.bw_total::ruby.dir_cntrl0     83212710                       # Total bandwidth to/from this memory (bytes/s)
system.mem_ctrls.bw_total::total             83212710                       # Total bandwidth to/from this memory (bytes/s)
system.mem_ctrls.memReq                       3761143                       # Total number of memory requests
system.mem_ctrls.memRead                      2276339                       # Number of memory reads
system.mem_ctrls.memWrite                     1484804                       # Number of memory writes
system.mem_ctrls.memRefresh                  31609133                       # Number of memory refreshes
system.mem_ctrls.memWaitCycles               13345705                       # Delay stalled at the head of the bank queue
system.mem_ctrls.memInputQ                        207                       # Delay in the input queue
system.mem_ctrls.memBankQ                       57661                       # Delay behind the head of the bank queue
system.mem_ctrls.totalStalls                 13403573                       # Total number of stall cycles
system.mem_ctrls.stallsPerReq                3.563697                       # Expected number of stall cycles per request
system.mem_ctrls.memBankBusy                 13234676                       # memory stalls due to busy bank
system.mem_ctrls.memBusBusy                     92140                       # memory stalls due to busy bus
system.mem_ctrls.memReadWriteBusy                 757                       # memory stalls due to read write turnaround
system.mem_ctrls.memDataBusBusy                   109                       # memory stalls due to read read turnaround
system.mem_ctrls.memArbWait                     18023                       # memory stalls due to arbitration
system.mem_ctrls.memBankCount            |      117487      3.12%      3.12% |      117466      3.12%      6.25% |      117515      3.12%      9.37% |      117524      3.12%     12.50% |      117487      3.12%     15.62% |      117502      3.12%     18.74% |      117538      3.13%     21.87% |      117485      3.12%     24.99% |      117517      3.12%     28.12% |      117518      3.12%     31.24% |      117444      3.12%     34.36% |      117485      3.12%     37.49% |      117554      3.13%     40.61% |      117519      3.12%     43.74% |      117518      3.12%     46.86% |      117519      3.12%     49.99% |      117691      3.13%     53.12% |      117651      3.13%     56.24% |      117645      3.13%     59.37% |      117620      3.13%     62.50% |      117612      3.13%     65.63% |      117657      3.13%     68.75% |      117617      3.13%     71.88% |      117522      3.12%     75.01% |      117607      3.13%     78.13% |      117521      3.12%     81.26% |      117424      3.12%     84.38% |      117499      3.12%     87.50% |      117504      3.12%     90.63% |      117492      3.12%     93.75% |      117505      3.12%     96.88% |      117498      3.12%    100.00% # Number of accesses per bank
system.mem_ctrls.memBankCount::total          3761143                       # Number of accesses per bank
system.cpu_voltage_domain.voltage                   1                       # Voltage in Volts
system.cpu_clk_domain.clock                       500                       # Clock period in ticks
system.cpu0.apic_clk_domain.clock                8000                       # Clock period in ticks
system.cpu0.workload.num_syscalls                 110                       # Number of system calls
system.cpu0.numCycles                      5785490018                       # number of cpu cycles simulated
system.cpu0.numWorkItemsStarted                     0                       # number of work items this cpu started
system.cpu0.numWorkItemsCompleted                   0                       # number of work items this cpu completed
system.cpu0.committedInsts                 1614436725                       # Number of instructions committed
system.cpu0.committedOps                   4565492406                       # Number of ops (including micro ops) committed
system.cpu0.num_int_alu_accesses           4309308785                       # Number of integer alu accesses
system.cpu0.num_fp_alu_accesses             108341154                       # Number of float alu accesses
system.cpu0.num_func_calls                  152159726                       # number of times a function call or return occured
system.cpu0.num_conditional_control_insts    355881180                       # number of instructions that are conditional controls
system.cpu0.num_int_insts                  4309308785                       # number of integer instructions
system.cpu0.num_fp_insts                    108341154                       # number of float instructions
system.cpu0.num_int_register_reads         9086792628                       # number of times the integer registers were read
system.cpu0.num_int_register_writes        4280220397                       # number of times the integer registers were written
system.cpu0.num_fp_register_reads           174106828                       # number of times the floating registers were read
system.cpu0.num_fp_register_writes           85151978                       # number of times the floating registers were written
system.cpu0.num_cc_register_reads          3650202633                       # number of times the CC registers were read
system.cpu0.num_cc_register_writes         1366529706                       # number of times the CC registers were written
system.cpu0.num_mem_refs                    708616843                       # number of memory refs
system.cpu0.num_load_insts                  431621705                       # Number of load instructions
system.cpu0.num_store_insts                 276995138                       # Number of store instructions
system.cpu0.num_idle_cycles                  0.002000                       # Number of idle cycles
system.cpu0.num_busy_cycles              5785490017.998000                       # Number of busy cycles
system.cpu0.not_idle_fraction                1.000000                       # Percentage of non-idle cycles
system.cpu0.idle_fraction                    0.000000                       # Percentage of idle cycles
system.cpu0.Branches                        581039199                       # Number of branches fetched
system.cpu0.op_class::No_OpClass             88981571      1.95%      1.95% # Class of executed instruction
system.cpu0.op_class::IntAlu               3302705909     72.34%     74.29% # Class of executed instruction
system.cpu0.op_class::IntMult                     346      0.00%     74.29% # Class of executed instruction
system.cpu0.op_class::IntDiv                380036506      8.32%     82.61% # Class of executed instruction
system.cpu0.op_class::FloatAdd               85151231      1.87%     84.48% # Class of executed instruction
system.cpu0.op_class::FloatCmp                      0      0.00%     84.48% # Class of executed instruction
system.cpu0.op_class::FloatCvt                      0      0.00%     84.48% # Class of executed instruction
system.cpu0.op_class::FloatMult                     0      0.00%     84.48% # Class of executed instruction
system.cpu0.op_class::FloatDiv                      0      0.00%     84.48% # Class of executed instruction
system.cpu0.op_class::FloatSqrt                     0      0.00%     84.48% # Class of executed instruction
system.cpu0.op_class::SimdAdd                       0      0.00%     84.48% # Class of executed instruction
system.cpu0.op_class::SimdAddAcc                    0      0.00%     84.48% # Class of executed instruction
system.cpu0.op_class::SimdAlu                       0      0.00%     84.48% # Class of executed instruction
system.cpu0.op_class::SimdCmp                       0      0.00%     84.48% # Class of executed instruction
system.cpu0.op_class::SimdCvt                       0      0.00%     84.48% # Class of executed instruction
system.cpu0.op_class::SimdMisc                      0      0.00%     84.48% # Class of executed instruction
system.cpu0.op_class::SimdMult                      0      0.00%     84.48% # Class of executed instruction
system.cpu0.op_class::SimdMultAcc                   0      0.00%     84.48% # Class of executed instruction
system.cpu0.op_class::SimdShift                     0      0.00%     84.48% # Class of executed instruction
system.cpu0.op_class::SimdShiftAcc                  0      0.00%     84.48% # Class of executed instruction
system.cpu0.op_class::SimdSqrt                      0      0.00%     84.48% # Class of executed instruction
system.cpu0.op_class::SimdFloatAdd                  0      0.00%     84.48% # Class of executed instruction
system.cpu0.op_class::SimdFloatAlu                  0      0.00%     84.48% # Class of executed instruction
system.cpu0.op_class::SimdFloatCmp                  0      0.00%     84.48% # Class of executed instruction
system.cpu0.op_class::SimdFloatCvt                  0      0.00%     84.48% # Class of executed instruction
system.cpu0.op_class::SimdFloatDiv                  0      0.00%     84.48% # Class of executed instruction
system.cpu0.op_class::SimdFloatMisc                 0      0.00%     84.48% # Class of executed instruction
system.cpu0.op_class::SimdFloatMult                 0      0.00%     84.48% # Class of executed instruction
system.cpu0.op_class::SimdFloatMultAcc              0      0.00%     84.48% # Class of executed instruction
system.cpu0.op_class::SimdFloatSqrt                 0      0.00%     84.48% # Class of executed instruction
system.cpu0.op_class::MemRead               431621705      9.45%     93.93% # Class of executed instruction
system.cpu0.op_class::MemWrite              276995138      6.07%    100.00% # Class of executed instruction
system.cpu0.op_class::IprAccess                     0      0.00%    100.00% # Class of executed instruction
system.cpu0.op_class::InstPrefetch                  0      0.00%    100.00% # Class of executed instruction
system.cpu0.op_class::total                4565492406                       # Class of executed instruction
system.cpu1.apic_clk_domain.clock                8000                       # Clock period in ticks
system.cpu1.numCycles                      5785248151                       # number of cpu cycles simulated
system.cpu1.numWorkItemsStarted                     0                       # number of work items this cpu started
system.cpu1.numWorkItemsCompleted                   0                       # number of work items this cpu completed
system.cpu1.committedInsts                   58077232                       # Number of instructions committed
system.cpu1.committedOps                    116148195                       # Number of ops (including micro ops) committed
system.cpu1.num_int_alu_accesses             87175319                       # Number of integer alu accesses
system.cpu1.num_fp_alu_accesses              56894279                       # Number of float alu accesses
system.cpu1.num_func_calls                     161815                       # number of times a function call or return occured
system.cpu1.num_conditional_control_insts      7134452                       # number of instructions that are conditional controls
system.cpu1.num_int_insts                    87175319                       # number of integer instructions
system.cpu1.num_fp_insts                     56894279                       # number of float instructions
system.cpu1.num_int_register_reads          153196448                       # number of times the integer registers were read
system.cpu1.num_int_register_writes          52032168                       # number of times the integer registers were written
system.cpu1.num_fp_register_reads            86190677                       # number of times the floating registers were read
system.cpu1.num_fp_register_writes           56813392                       # number of times the floating registers were written
system.cpu1.num_cc_register_reads            42887640                       # number of times the CC registers were read
system.cpu1.num_cc_register_writes           42862530                       # number of times the CC registers were written
system.cpu1.num_mem_refs                     28338623                       # number of memory refs
system.cpu1.num_load_insts                   28176742                       # Number of load instructions
system.cpu1.num_store_insts                    161881                       # Number of store instructions
system.cpu1.num_idle_cycles              5533121412.799064                       # Number of idle cycles
system.cpu1.num_busy_cycles              252126738.200936                       # Number of busy cycles
system.cpu1.not_idle_fraction                0.043581                       # Percentage of non-idle cycles
system.cpu1.idle_fraction                    0.956419                       # Percentage of idle cycles
system.cpu1.Branches                          7383422                       # Number of branches fetched
system.cpu1.op_class::No_OpClass                    2      0.00%      0.00% # Class of executed instruction
system.cpu1.op_class::IntAlu                 58594024     50.45%     50.45% # Class of executed instruction
system.cpu1.op_class::IntMult                  242657      0.21%     50.66% # Class of executed instruction
system.cpu1.op_class::IntDiv                       14      0.00%     50.66% # Class of executed instruction
system.cpu1.op_class::FloatAdd               28972875     24.94%     75.60% # Class of executed instruction
system.cpu1.op_class::FloatCmp                      0      0.00%     75.60% # Class of executed instruction
system.cpu1.op_class::FloatCvt                      0      0.00%     75.60% # Class of executed instruction
system.cpu1.op_class::FloatMult                     0      0.00%     75.60% # Class of executed instruction
system.cpu1.op_class::FloatDiv                      0      0.00%     75.60% # Class of executed instruction
system.cpu1.op_class::FloatSqrt                     0      0.00%     75.60% # Class of executed instruction
system.cpu1.op_class::SimdAdd                       0      0.00%     75.60% # Class of executed instruction
system.cpu1.op_class::SimdAddAcc                    0      0.00%     75.60% # Class of executed instruction
system.cpu1.op_class::SimdAlu                       0      0.00%     75.60% # Class of executed instruction
system.cpu1.op_class::SimdCmp                       0      0.00%     75.60% # Class of executed instruction
system.cpu1.op_class::SimdCvt                       0      0.00%     75.60% # Class of executed instruction
system.cpu1.op_class::SimdMisc                      0      0.00%     75.60% # Class of executed instruction
system.cpu1.op_class::SimdMult                      0      0.00%     75.60% # Class of executed instruction
system.cpu1.op_class::SimdMultAcc                   0      0.00%     75.60% # Class of executed instruction
system.cpu1.op_class::SimdShift                     0      0.00%     75.60% # Class of executed instruction
system.cpu1.op_class::SimdShiftAcc                  0      0.00%     75.60% # Class of executed instruction
system.cpu1.op_class::SimdSqrt                      0      0.00%     75.60% # Class of executed instruction
system.cpu1.op_class::SimdFloatAdd                  0      0.00%     75.60% # Class of executed instruction
system.cpu1.op_class::SimdFloatAlu                  0      0.00%     75.60% # Class of executed instruction
system.cpu1.op_class::SimdFloatCmp                  0      0.00%     75.60% # Class of executed instruction
system.cpu1.op_class::SimdFloatCvt                  0      0.00%     75.60% # Class of executed instruction
system.cpu1.op_class::SimdFloatDiv                  0      0.00%     75.60% # Class of executed instruction
system.cpu1.op_class::SimdFloatMisc                 0      0.00%     75.60% # Class of executed instruction
system.cpu1.op_class::SimdFloatMult                 0      0.00%     75.60% # Class of executed instruction
system.cpu1.op_class::SimdFloatMultAcc              0      0.00%     75.60% # Class of executed instruction
system.cpu1.op_class::SimdFloatSqrt                 0      0.00%     75.60% # Class of executed instruction
system.cpu1.op_class::MemRead                28176742     24.26%     99.86% # Class of executed instruction
system.cpu1.op_class::MemWrite                 161881      0.14%    100.00% # Class of executed instruction
system.cpu1.op_class::IprAccess                     0      0.00%    100.00% # Class of executed instruction
system.cpu1.op_class::InstPrefetch                  0      0.00%    100.00% # Class of executed instruction
system.cpu1.op_class::total                 116148195                       # Class of executed instruction
system.cpu2.apic_clk_domain.clock                8000                       # Clock period in ticks
system.cpu2.numCycles                      5785248135                       # number of cpu cycles simulated
system.cpu2.numWorkItemsStarted                     0                       # number of work items this cpu started
system.cpu2.numWorkItemsCompleted                   0                       # number of work items this cpu completed
system.cpu2.committedInsts                   58077232                       # Number of instructions committed
system.cpu2.committedOps                    116148195                       # Number of ops (including micro ops) committed
system.cpu2.num_int_alu_accesses             87175319                       # Number of integer alu accesses
system.cpu2.num_fp_alu_accesses              56894279                       # Number of float alu accesses
system.cpu2.num_func_calls                     161815                       # number of times a function call or return occured
system.cpu2.num_conditional_control_insts      7134452                       # number of instructions that are conditional controls
system.cpu2.num_int_insts                    87175319                       # number of integer instructions
system.cpu2.num_fp_insts                     56894279                       # number of float instructions
system.cpu2.num_int_register_reads          153196448                       # number of times the integer registers were read
system.cpu2.num_int_register_writes          52032168                       # number of times the integer registers were written
system.cpu2.num_fp_register_reads            86190677                       # number of times the floating registers were read
system.cpu2.num_fp_register_writes           56813392                       # number of times the floating registers were written
system.cpu2.num_cc_register_reads            42887640                       # number of times the CC registers were read
system.cpu2.num_cc_register_writes           42862530                       # number of times the CC registers were written
system.cpu2.num_mem_refs                     28338623                       # number of memory refs
system.cpu2.num_load_insts                   28176742                       # Number of load instructions
system.cpu2.num_store_insts                    161881                       # Number of store instructions
system.cpu2.num_idle_cycles              5533121933.473950                       # Number of idle cycles
system.cpu2.num_busy_cycles              252126201.526050                       # Number of busy cycles
system.cpu2.not_idle_fraction                0.043581                       # Percentage of non-idle cycles
system.cpu2.idle_fraction                    0.956419                       # Percentage of idle cycles
system.cpu2.Branches                          7383422                       # Number of branches fetched
system.cpu2.op_class::No_OpClass                    2      0.00%      0.00% # Class of executed instruction
system.cpu2.op_class::IntAlu                 58594024     50.45%     50.45% # Class of executed instruction
system.cpu2.op_class::IntMult                  242657      0.21%     50.66% # Class of executed instruction
system.cpu2.op_class::IntDiv                       14      0.00%     50.66% # Class of executed instruction
system.cpu2.op_class::FloatAdd               28972875     24.94%     75.60% # Class of executed instruction
system.cpu2.op_class::FloatCmp                      0      0.00%     75.60% # Class of executed instruction
system.cpu2.op_class::FloatCvt                      0      0.00%     75.60% # Class of executed instruction
system.cpu2.op_class::FloatMult                     0      0.00%     75.60% # Class of executed instruction
system.cpu2.op_class::FloatDiv                      0      0.00%     75.60% # Class of executed instruction
system.cpu2.op_class::FloatSqrt                     0      0.00%     75.60% # Class of executed instruction
system.cpu2.op_class::SimdAdd                       0      0.00%     75.60% # Class of executed instruction
system.cpu2.op_class::SimdAddAcc                    0      0.00%     75.60% # Class of executed instruction
system.cpu2.op_class::SimdAlu                       0      0.00%     75.60% # Class of executed instruction
system.cpu2.op_class::SimdCmp                       0      0.00%     75.60% # Class of executed instruction
system.cpu2.op_class::SimdCvt                       0      0.00%     75.60% # Class of executed instruction
system.cpu2.op_class::SimdMisc                      0      0.00%     75.60% # Class of executed instruction
system.cpu2.op_class::SimdMult                      0      0.00%     75.60% # Class of executed instruction
system.cpu2.op_class::SimdMultAcc                   0      0.00%     75.60% # Class of executed instruction
system.cpu2.op_class::SimdShift                     0      0.00%     75.60% # Class of executed instruction
system.cpu2.op_class::SimdShiftAcc                  0      0.00%     75.60% # Class of executed instruction
system.cpu2.op_class::SimdSqrt                      0      0.00%     75.60% # Class of executed instruction
system.cpu2.op_class::SimdFloatAdd                  0      0.00%     75.60% # Class of executed instruction
system.cpu2.op_class::SimdFloatAlu                  0      0.00%     75.60% # Class of executed instruction
system.cpu2.op_class::SimdFloatCmp                  0      0.00%     75.60% # Class of executed instruction
system.cpu2.op_class::SimdFloatCvt                  0      0.00%     75.60% # Class of executed instruction
system.cpu2.op_class::SimdFloatDiv                  0      0.00%     75.60% # Class of executed instruction
system.cpu2.op_class::SimdFloatMisc                 0      0.00%     75.60% # Class of executed instruction
system.cpu2.op_class::SimdFloatMult                 0      0.00%     75.60% # Class of executed instruction
system.cpu2.op_class::SimdFloatMultAcc              0      0.00%     75.60% # Class of executed instruction
system.cpu2.op_class::SimdFloatSqrt                 0      0.00%     75.60% # Class of executed instruction
system.cpu2.op_class::MemRead                28176742     24.26%     99.86% # Class of executed instruction
system.cpu2.op_class::MemWrite                 161881      0.14%    100.00% # Class of executed instruction
system.cpu2.op_class::IprAccess                     0      0.00%    100.00% # Class of executed instruction
system.cpu2.op_class::InstPrefetch                  0      0.00%    100.00% # Class of executed instruction
system.cpu2.op_class::total                 116148195                       # Class of executed instruction
system.ruby.clk_domain.clock                      500                       # Clock period in ticks
system.ruby.delayHist::bucket_size                 16                       # delay histogram for all message
system.ruby.delayHist::max_bucket                 159                       # delay histogram for all message
system.ruby.delayHist::samples               37267323                       # delay histogram for all message
system.ruby.delayHist::mean                  0.612171                       # delay histogram for all message
system.ruby.delayHist::stdev                 2.122957                       # delay histogram for all message
system.ruby.delayHist                    |    37255869     99.97%     99.97% |       11452      0.03%    100.00% |           1      0.00%    100.00% |           0      0.00%    100.00% |           0      0.00%    100.00% |           1      0.00%    100.00% |           0      0.00%    100.00% |           0      0.00%    100.00% |           0      0.00%    100.00% |           0      0.00%    100.00% # delay histogram for all message
system.ruby.delayHist::total                 37267323                       # delay histogram for all message
system.ruby.outstanding_req_hist::bucket_size            1                      
system.ruby.outstanding_req_hist::max_bucket            9                      
system.ruby.outstanding_req_hist::samples   3015611459                      
system.ruby.outstanding_req_hist::mean       1.000196                      
system.ruby.outstanding_req_hist::gmean      1.000136                      
system.ruby.outstanding_req_hist::stdev      0.013985                      
system.ruby.outstanding_req_hist         |           0      0.00%      0.00% |  3015021571     99.98%     99.98% |      589888      0.02%    100.00% |           0      0.00%    100.00% |           0      0.00%    100.00% |           0      0.00%    100.00% |           0      0.00%    100.00% |           0      0.00%    100.00% |           0      0.00%    100.00% |           0      0.00%    100.00%
system.ruby.outstanding_req_hist::total    3015611459                      
system.ruby.latency_hist::bucket_size              16                      
system.ruby.latency_hist::max_bucket              159                      
system.ruby.latency_hist::samples          3015611459                      
system.ruby.latency_hist::mean               1.086028                      
system.ruby.latency_hist::gmean              1.006883                      
system.ruby.latency_hist::stdev              2.363670                      
system.ruby.latency_hist                 |  3010117323     99.82%     99.82% |     2716616      0.09%     99.91% |      402571      0.01%     99.92% |      195061      0.01%     99.93% |      744200      0.02%     99.95% |     1414758      0.05%    100.00% |       20722      0.00%    100.00% |         197      0.00%    100.00% |          11      0.00%    100.00% |           0      0.00%    100.00%
system.ruby.latency_hist::total            3015611459                      
system.ruby.hit_latency_hist::bucket_size           16                      
system.ruby.hit_latency_hist::max_bucket          159                      
system.ruby.hit_latency_hist::samples      3015611459                      
system.ruby.hit_latency_hist::mean           1.086028                      
system.ruby.hit_latency_hist::gmean          1.006883                      
system.ruby.hit_latency_hist::stdev          2.363670                      
system.ruby.hit_latency_hist             |  3010117323     99.82%     99.82% |     2716616      0.09%     99.91% |      402571      0.01%     99.92% |      195061      0.01%     99.93% |      744200      0.02%     99.95% |     1414758      0.05%    100.00% |       20722      0.00%    100.00% |         197      0.00%    100.00% |          11      0.00%    100.00% |           0      0.00%    100.00%
system.ruby.hit_latency_hist::total        3015611459                      
system.ruby.l0_cntrl0.Dcache.demand_hits    706441140                       # Number of cache demand hits
system.ruby.l0_cntrl0.Dcache.demand_misses      2175767                       # Number of cache demand misses
system.ruby.l0_cntrl0.Dcache.demand_accesses    708616907                       # Number of cache demand accesses
system.ruby.l0_cntrl0.Icache.demand_hits   2100709501                       # Number of cache demand hits
system.ruby.l0_cntrl0.Icache.demand_misses         6601                       # Number of cache demand misses
system.ruby.l0_cntrl0.Icache.demand_accesses   2100716102                       # Number of cache demand accesses
system.ruby.l0_cntrl0.Zcache.demand_hits            0                       # Number of cache demand hits
system.ruby.l0_cntrl0.Zcache.demand_misses            0                       # Number of cache demand misses
system.ruby.l0_cntrl0.Zcache.demand_accesses            0                       # Number of cache demand accesses
system.ruby.l0_cntrl1.Dcache.demand_hits     26821971                       # Number of cache demand hits
system.ruby.l0_cntrl1.Dcache.demand_misses      1811564                       # Number of cache demand misses
system.ruby.l0_cntrl1.Dcache.demand_accesses     28633535                       # Number of cache demand accesses
system.ruby.l0_cntrl1.Icache.demand_hits     74503512                       # Number of cache demand hits
system.ruby.l0_cntrl1.Icache.demand_misses         2178                       # Number of cache demand misses
system.ruby.l0_cntrl1.Icache.demand_accesses     74505690                       # Number of cache demand accesses
system.ruby.l0_cntrl1.Zcache.demand_hits            0                       # Number of cache demand hits
system.ruby.l0_cntrl1.Zcache.demand_misses            0                       # Number of cache demand misses
system.ruby.l0_cntrl1.Zcache.demand_accesses            0                       # Number of cache demand accesses
system.ruby.l0_cntrl2.Dcache.demand_hits     26816991                       # Number of cache demand hits
system.ruby.l0_cntrl2.Dcache.demand_misses      1816544                       # Number of cache demand misses
system.ruby.l0_cntrl2.Dcache.demand_accesses     28633535                       # Number of cache demand accesses
system.ruby.l0_cntrl2.Icache.demand_hits     74503514                       # Number of cache demand hits
system.ruby.l0_cntrl2.Icache.demand_misses         2176                       # Number of cache demand misses
system.ruby.l0_cntrl2.Icache.demand_accesses     74505690                       # Number of cache demand accesses
system.ruby.l0_cntrl2.Zcache.demand_hits            0                       # Number of cache demand hits
system.ruby.l0_cntrl2.Zcache.demand_misses            0                       # Number of cache demand misses
system.ruby.l0_cntrl2.Zcache.demand_accesses            0                       # Number of cache demand accesses
system.ruby.l1_cntrl0.cache.demand_hits           135                       # Number of cache demand hits
system.ruby.l1_cntrl0.cache.demand_misses      2182233                       # Number of cache demand misses
system.ruby.l1_cntrl0.cache.demand_accesses      2182368                       # Number of cache demand accesses
system.ruby.l1_cntrl1.cache.demand_hits        159889                       # Number of cache demand hits
system.ruby.l1_cntrl1.cache.demand_misses      1653853                       # Number of cache demand misses
system.ruby.l1_cntrl1.cache.demand_accesses      1813742                       # Number of cache demand accesses
system.ruby.l1_cntrl2.cache.demand_hits        160670                       # Number of cache demand hits
system.ruby.l1_cntrl2.cache.demand_misses      1658050                       # Number of cache demand misses
system.ruby.l1_cntrl2.cache.demand_accesses      1818720                       # Number of cache demand accesses
system.ruby.l2_cntrl0.L2cache.demand_hits      2716900                       # Number of cache demand hits
system.ruby.l2_cntrl0.L2cache.demand_misses      2777236                       # Number of cache demand misses
system.ruby.l2_cntrl0.L2cache.demand_accesses      5494136                       # Number of cache demand accesses
system.ruby.l2_cntrl0.fully_busy_cycles            49                       # cycles for which number of transistions == max transitions
system.ruby.memctrl_clk_domain.clock             1500                       # Clock period in ticks
system.ruby.network.routers0.percent_links_utilized            0                      
system.ruby.network.routers1.percent_links_utilized            0                      
system.ruby.network.routers2.percent_links_utilized            0                      
system.ruby.network.routers3.percent_links_utilized     0.198020                      
system.ruby.network.routers3.msg_count.Control::0      2182233                      
system.ruby.network.routers3.msg_count.Request_Control::2         3903                      
system.ruby.network.routers3.msg_count.Response_Data::1      2185183                      
system.ruby.network.routers3.msg_count.Response_Control::1      2177445                      
system.ruby.network.routers3.msg_count.Response_Control::2      2182218                      
system.ruby.network.routers3.msg_count.Writeback_Data::0      2176771                      
system.ruby.network.routers3.msg_count.Writeback_Data::1         2405                      
system.ruby.network.routers3.msg_count.Writeback_Control::0          611                      
system.ruby.network.routers3.msg_bytes.Control::0     17457864                      
system.ruby.network.routers3.msg_bytes.Request_Control::2        31224                      
system.ruby.network.routers3.msg_bytes.Response_Data::1    157333176                      
system.ruby.network.routers3.msg_bytes.Response_Control::1     17419560                      
system.ruby.network.routers3.msg_bytes.Response_Control::2     17457744                      
system.ruby.network.routers3.msg_bytes.Writeback_Data::0    156727512                      
system.ruby.network.routers3.msg_bytes.Writeback_Data::1       173160                      
system.ruby.network.routers3.msg_bytes.Writeback_Control::0         4888                      
system.ruby.network.routers4.percent_links_utilized     0.116007                      
system.ruby.network.routers4.msg_count.Control::0      1653853                      
system.ruby.network.routers4.msg_count.Request_Control::2       496378                      
system.ruby.network.routers4.msg_count.Response_Data::1      2283890                      
system.ruby.network.routers4.msg_count.Response_Control::1      1311873                      
system.ruby.network.routers4.msg_count.Response_Control::2      1529297                      
system.ruby.network.routers4.msg_count.Writeback_Data::0        21166                      
system.ruby.network.routers4.msg_count.Writeback_Data::1            5                      
system.ruby.network.routers4.msg_count.Writeback_Control::0      1109352                      
system.ruby.network.routers4.msg_bytes.Control::0     13230824                      
system.ruby.network.routers4.msg_bytes.Request_Control::2      3971024                      
system.ruby.network.routers4.msg_bytes.Response_Data::1    164440080                      
system.ruby.network.routers4.msg_bytes.Response_Control::1     10494984                      
system.ruby.network.routers4.msg_bytes.Response_Control::2     12234376                      
system.ruby.network.routers4.msg_bytes.Writeback_Data::0      1523952                      
system.ruby.network.routers4.msg_bytes.Writeback_Data::1          360                      
system.ruby.network.routers4.msg_bytes.Writeback_Control::0      8874816                      
system.ruby.network.routers5.percent_links_utilized     0.097152                      
system.ruby.network.routers5.msg_count.Control::0      1658050                      
system.ruby.network.routers5.msg_count.Request_Control::2       263910                      
system.ruby.network.routers5.msg_count.Response_Data::1      1823156                      
system.ruby.network.routers5.msg_count.Response_Control::1      1315995                      
system.ruby.network.routers5.msg_count.Response_Control::2      1532983                      
system.ruby.network.routers5.msg_count.Writeback_Data::0        21116                      
system.ruby.network.routers5.msg_count.Writeback_Data::1            5                      
system.ruby.network.routers5.msg_count.Writeback_Control::0      1113525                      
system.ruby.network.routers5.msg_bytes.Control::0     13264400                      
system.ruby.network.routers5.msg_bytes.Request_Control::2      2111280                      
system.ruby.network.routers5.msg_bytes.Response_Data::1    131267232                      
system.ruby.network.routers5.msg_bytes.Response_Control::1     10527960                      
system.ruby.network.routers5.msg_bytes.Response_Control::2     12263864                      
system.ruby.network.routers5.msg_bytes.Writeback_Data::0      1520352                      
system.ruby.network.routers5.msg_bytes.Writeback_Data::1          360                      
system.ruby.network.routers5.msg_bytes.Writeback_Control::0      8908200                      
system.ruby.network.routers6.percent_links_utilized     0.539097                      
system.ruby.network.routers6.msg_count.Control::0      7770475                      
system.ruby.network.routers6.msg_count.Request_Control::2       582844                      
system.ruby.network.routers6.msg_count.Response_Data::1      9153415                      
system.ruby.network.routers6.msg_count.Response_Control::1      6562399                      
system.ruby.network.routers6.msg_count.Response_Control::2      5244498                      
system.ruby.network.routers6.msg_count.Writeback_Data::0      2219053                      
system.ruby.network.routers6.msg_count.Writeback_Data::1         2415                      
system.ruby.network.routers6.msg_count.Writeback_Control::0      2223488                      
system.ruby.network.routers6.msg_bytes.Control::0     62163800                      
system.ruby.network.routers6.msg_bytes.Request_Control::2      4662752                      
system.ruby.network.routers6.msg_bytes.Response_Data::1    659045880                      
system.ruby.network.routers6.msg_bytes.Response_Control::1     52499192                      
system.ruby.network.routers6.msg_bytes.Response_Control::2     41955984                      
system.ruby.network.routers6.msg_bytes.Writeback_Data::0    159771816                      
system.ruby.network.routers6.msg_bytes.Writeback_Data::1       173880                      
system.ruby.network.routers6.msg_bytes.Writeback_Control::0     17787904                      
system.ruby.network.routers7.percent_links_utilized     0.163702                      
system.ruby.network.routers7.msg_count.Control::0      2276339                      
system.ruby.network.routers7.msg_count.Response_Data::1      3761143                      
system.ruby.network.routers7.msg_count.Response_Control::1      1757154                      
system.ruby.network.routers7.msg_bytes.Control::0     18210712                      
system.ruby.network.routers7.msg_bytes.Response_Data::1    270802296                      
system.ruby.network.routers7.msg_bytes.Response_Control::1     14057232                      
system.ruby.network.routers8.percent_links_utilized     0.139840                      
system.ruby.network.routers8.msg_count.Control::0      7770475                      
system.ruby.network.routers8.msg_count.Request_Control::2       764191                      
system.ruby.network.routers8.msg_count.Response_Data::1      9654312                      
system.ruby.network.routers8.msg_count.Response_Control::1      6562433                      
system.ruby.network.routers8.msg_count.Response_Control::2      5244498                      
system.ruby.network.routers8.msg_count.Writeback_Data::0      2219053                      
system.ruby.network.routers8.msg_count.Writeback_Data::1         2415                      
system.ruby.network.routers8.msg_count.Writeback_Control::0      2223488                      
system.ruby.network.routers8.msg_bytes.Control::0     62163800                      
system.ruby.network.routers8.msg_bytes.Request_Control::2      6113528                      
system.ruby.network.routers8.msg_bytes.Response_Data::1    695110464                      
system.ruby.network.routers8.msg_bytes.Response_Control::1     52499464                      
system.ruby.network.routers8.msg_bytes.Response_Control::2     41955984                      
system.ruby.network.routers8.msg_bytes.Writeback_Data::0    159771816                      
system.ruby.network.routers8.msg_bytes.Writeback_Data::1       173880                      
system.ruby.network.routers8.msg_bytes.Writeback_Control::0     17787904                      
system.ruby.network.msg_count.Control        23311425                      
system.ruby.network.msg_count.Request_Control      2111226                      
system.ruby.network.msg_count.Response_Data     28861099                      
system.ruby.network.msg_count.Response_Control     35420793                      
system.ruby.network.msg_count.Writeback_Data      6664404                      
system.ruby.network.msg_count.Writeback_Control      6670464                      
system.ruby.network.msg_byte.Control        186491400                      
system.ruby.network.msg_byte.Request_Control     16889808                      
system.ruby.network.msg_byte.Response_Data   2077999128                      
system.ruby.network.msg_byte.Response_Control    283366344                      
system.ruby.network.msg_byte.Writeback_Data    479837088                      
system.ruby.network.msg_byte.Writeback_Control     53363712                      
system.ruby.network.routers0.throttle0.link_utilization            0                      
system.ruby.network.routers0.throttle1.link_utilization            0                      
system.ruby.network.routers1.throttle0.link_utilization            0                      
system.ruby.network.routers1.throttle1.link_utilization            0                      
system.ruby.network.routers2.throttle0.link_utilization            0                      
system.ruby.network.routers2.throttle1.link_utilization            0                      
system.ruby.network.routers3.throttle0.link_utilization     0.188586                      
system.ruby.network.routers3.throttle0.msg_count.Request_Control::2         3903                      
system.ruby.network.routers3.throttle0.msg_count.Response_Data::1      2182213                      
system.ruby.network.routers3.throttle0.msg_count.Response_Control::1      2177432                      
system.ruby.network.routers3.throttle0.msg_bytes.Request_Control::2        31224                      
system.ruby.network.routers3.throttle0.msg_bytes.Response_Data::1    157119336                      
system.ruby.network.routers3.throttle0.msg_bytes.Response_Control::1     17419456                      
system.ruby.network.routers3.throttle1.link_utilization     0.207453                      
system.ruby.network.routers3.throttle1.msg_count.Control::0      2182233                      
system.ruby.network.routers3.throttle1.msg_count.Response_Data::1         2970                      
system.ruby.network.routers3.throttle1.msg_count.Response_Control::1           13                      
system.ruby.network.routers3.throttle1.msg_count.Response_Control::2      2182218                      
system.ruby.network.routers3.throttle1.msg_count.Writeback_Data::0      2176771                      
system.ruby.network.routers3.throttle1.msg_count.Writeback_Data::1         2405                      
system.ruby.network.routers3.throttle1.msg_count.Writeback_Control::0          611                      
system.ruby.network.routers3.throttle1.msg_bytes.Control::0     17457864                      
system.ruby.network.routers3.throttle1.msg_bytes.Response_Data::1       213840                      
system.ruby.network.routers3.throttle1.msg_bytes.Response_Control::1          104                      
system.ruby.network.routers3.throttle1.msg_bytes.Response_Control::2     17457744                      
system.ruby.network.routers3.throttle1.msg_bytes.Writeback_Data::0    156727512                      
system.ruby.network.routers3.throttle1.msg_bytes.Writeback_Data::1       173160                      
system.ruby.network.routers3.throttle1.msg_bytes.Writeback_Control::0         4888                      
system.ruby.network.routers4.throttle0.link_utilization     0.142698                      
system.ruby.network.routers4.throttle0.msg_count.Request_Control::2       496378                      
system.ruby.network.routers4.throttle0.msg_count.Response_Data::1      1653852                      
system.ruby.network.routers4.throttle0.msg_count.Response_Control::1      1130521                      
system.ruby.network.routers4.throttle0.msg_bytes.Request_Control::2      3971024                      
system.ruby.network.routers4.throttle0.msg_bytes.Response_Data::1    119077344                      
system.ruby.network.routers4.throttle0.msg_bytes.Response_Control::1      9044168                      
system.ruby.network.routers4.throttle1.link_utilization     0.089316                      
system.ruby.network.routers4.throttle1.msg_count.Control::0      1653853                      
system.ruby.network.routers4.throttle1.msg_count.Response_Data::1       630038                      
system.ruby.network.routers4.throttle1.msg_count.Response_Control::1       181352                      
system.ruby.network.routers4.throttle1.msg_count.Response_Control::2      1529297                      
system.ruby.network.routers4.throttle1.msg_count.Writeback_Data::0        21166                      
system.ruby.network.routers4.throttle1.msg_count.Writeback_Data::1            5                      
system.ruby.network.routers4.throttle1.msg_count.Writeback_Control::0      1109352                      
system.ruby.network.routers4.throttle1.msg_bytes.Control::0     13230824                      
system.ruby.network.routers4.throttle1.msg_bytes.Response_Data::1     45362736                      
system.ruby.network.routers4.throttle1.msg_bytes.Response_Control::1      1450816                      
system.ruby.network.routers4.throttle1.msg_bytes.Response_Control::2     12234376                      
system.ruby.network.routers4.throttle1.msg_bytes.Writeback_Data::0      1523952                      
system.ruby.network.routers4.throttle1.msg_bytes.Writeback_Data::1          360                      
system.ruby.network.routers4.throttle1.msg_bytes.Writeback_Control::0      8874816                      
system.ruby.network.routers5.throttle0.link_utilization     0.141051                      
system.ruby.network.routers5.throttle0.msg_count.Request_Control::2       263910                      
system.ruby.network.routers5.throttle0.msg_count.Response_Data::1      1658049                      
system.ruby.network.routers5.throttle0.msg_count.Response_Control::1      1134644                      
system.ruby.network.routers5.throttle0.msg_bytes.Request_Control::2      2111280                      
system.ruby.network.routers5.throttle0.msg_bytes.Response_Data::1    119379528                      
system.ruby.network.routers5.throttle0.msg_bytes.Response_Control::1      9077152                      
system.ruby.network.routers5.throttle1.link_utilization     0.053254                      
system.ruby.network.routers5.throttle1.msg_count.Control::0      1658050                      
system.ruby.network.routers5.throttle1.msg_count.Response_Data::1       165107                      
system.ruby.network.routers5.throttle1.msg_count.Response_Control::1       181351                      
system.ruby.network.routers5.throttle1.msg_count.Response_Control::2      1532983                      
system.ruby.network.routers5.throttle1.msg_count.Writeback_Data::0        21116                      
system.ruby.network.routers5.throttle1.msg_count.Writeback_Data::1            5                      
system.ruby.network.routers5.throttle1.msg_count.Writeback_Control::0      1113525                      
system.ruby.network.routers5.throttle1.msg_bytes.Control::0     13264400                      
system.ruby.network.routers5.throttle1.msg_bytes.Response_Data::1     11887704                      
system.ruby.network.routers5.throttle1.msg_bytes.Response_Control::1      1450808                      
system.ruby.network.routers5.throttle1.msg_bytes.Response_Control::2     12263864                      
system.ruby.network.routers5.throttle1.msg_bytes.Writeback_Data::0      1520352                      
system.ruby.network.routers5.throttle1.msg_bytes.Writeback_Data::1          360                      
system.ruby.network.routers5.throttle1.msg_bytes.Writeback_Control::0      8908200                      
system.ruby.network.routers6.throttle0.link_utilization     0.510048                      
system.ruby.network.routers6.throttle0.msg_count.Control::0      5494136                      
system.ruby.network.routers6.throttle0.msg_count.Response_Data::1      2675394                      
system.ruby.network.routers6.throttle0.msg_count.Response_Control::1      1983661                      
system.ruby.network.routers6.throttle0.msg_count.Response_Control::2      5244498                      
system.ruby.network.routers6.throttle0.msg_count.Writeback_Data::0      2219053                      
system.ruby.network.routers6.throttle0.msg_count.Writeback_Data::1         2415                      
system.ruby.network.routers6.throttle0.msg_count.Writeback_Control::0      2223488                      
system.ruby.network.routers6.throttle0.msg_bytes.Control::0     43953088                      
system.ruby.network.routers6.throttle0.msg_bytes.Response_Data::1    192628368                      
system.ruby.network.routers6.throttle0.msg_bytes.Response_Control::1     15869288                      
system.ruby.network.routers6.throttle0.msg_bytes.Response_Control::2     41955984                      
system.ruby.network.routers6.throttle0.msg_bytes.Writeback_Data::0    159771816                      
system.ruby.network.routers6.throttle0.msg_bytes.Writeback_Data::1       173880                      
system.ruby.network.routers6.throttle0.msg_bytes.Writeback_Control::0     17787904                      
system.ruby.network.routers6.throttle1.link_utilization     0.568146                      
system.ruby.network.routers6.throttle1.msg_count.Control::0      2276339                      
system.ruby.network.routers6.throttle1.msg_count.Request_Control::2       582844                      
system.ruby.network.routers6.throttle1.msg_count.Response_Data::1      6478021                      
system.ruby.network.routers6.throttle1.msg_count.Response_Control::1      4578738                      
system.ruby.network.routers6.throttle1.msg_bytes.Control::0     18210712                      
system.ruby.network.routers6.throttle1.msg_bytes.Request_Control::2      4662752                      
system.ruby.network.routers6.throttle1.msg_bytes.Response_Data::1    466417512                      
system.ruby.network.routers6.throttle1.msg_bytes.Response_Control::1     36629904                      
system.ruby.network.routers7.throttle0.link_utilization     0.136339                      
system.ruby.network.routers7.throttle0.msg_count.Control::0      2276339                      
system.ruby.network.routers7.throttle0.msg_count.Response_Data::1      1484804                      
system.ruby.network.routers7.throttle0.msg_count.Response_Control::1       136175                      
system.ruby.network.routers7.throttle0.msg_bytes.Control::0     18210712                      
system.ruby.network.routers7.throttle0.msg_bytes.Response_Data::1    106905888                      
system.ruby.network.routers7.throttle0.msg_bytes.Response_Control::1      1089400                      
system.ruby.network.routers7.throttle1.link_utilization     0.191064                      
system.ruby.network.routers7.throttle1.msg_count.Response_Data::1      2276339                      
system.ruby.network.routers7.throttle1.msg_count.Response_Control::1      1620979                      
system.ruby.network.routers7.throttle1.msg_bytes.Response_Data::1    163896408                      
system.ruby.network.routers7.throttle1.msg_bytes.Response_Control::1     12967832                      
system.ruby.network.routers8.throttle0.link_utilization            0                      
system.ruby.network.routers8.throttle1.link_utilization            0                      
system.ruby.network.routers8.throttle2.link_utilization            0                      
system.ruby.network.routers8.throttle3.link_utilization     0.188586                      
system.ruby.network.routers8.throttle3.msg_count.Request_Control::2         3903                      
system.ruby.network.routers8.throttle3.msg_count.Response_Data::1      2182213                      
system.ruby.network.routers8.throttle3.msg_count.Response_Control::1      2177432                      
system.ruby.network.routers8.throttle3.msg_bytes.Request_Control::2        31224                      
system.ruby.network.routers8.throttle3.msg_bytes.Response_Data::1    157119336                      
system.ruby.network.routers8.throttle3.msg_bytes.Response_Control::1     17419456                      
system.ruby.network.routers8.throttle4.link_utilization     0.142698                      
system.ruby.network.routers8.throttle4.msg_count.Request_Control::2       496378                      
system.ruby.network.routers8.throttle4.msg_count.Response_Data::1      1653852                      
system.ruby.network.routers8.throttle4.msg_count.Response_Control::1      1130521                      
system.ruby.network.routers8.throttle4.msg_bytes.Request_Control::2      3971024                      
system.ruby.network.routers8.throttle4.msg_bytes.Response_Data::1    119077344                      
system.ruby.network.routers8.throttle4.msg_bytes.Response_Control::1      9044168                      
system.ruby.network.routers8.throttle5.link_utilization     0.141051                      
system.ruby.network.routers8.throttle5.msg_count.Request_Control::2       263910                      
system.ruby.network.routers8.throttle5.msg_count.Response_Data::1      1658049                      
system.ruby.network.routers8.throttle5.msg_count.Response_Control::1      1134644                      
system.ruby.network.routers8.throttle5.msg_bytes.Request_Control::2      2111280                      
system.ruby.network.routers8.throttle5.msg_bytes.Response_Data::1    119379528                      
system.ruby.network.routers8.throttle5.msg_bytes.Response_Control::1      9077152                      
system.ruby.network.routers8.throttle6.link_utilization     0.510048                      
system.ruby.network.routers8.throttle6.msg_count.Control::0      5494136                      
system.ruby.network.routers8.throttle6.msg_count.Response_Data::1      2675394                      
system.ruby.network.routers8.throttle6.msg_count.Response_Control::1      1983661                      
system.ruby.network.routers8.throttle6.msg_count.Response_Control::2      5244498                      
system.ruby.network.routers8.throttle6.msg_count.Writeback_Data::0      2219053                      
system.ruby.network.routers8.throttle6.msg_count.Writeback_Data::1         2415                      
system.ruby.network.routers8.throttle6.msg_count.Writeback_Control::0      2223488                      
system.ruby.network.routers8.throttle6.msg_bytes.Control::0     43953088                      
system.ruby.network.routers8.throttle6.msg_bytes.Response_Data::1    192628368                      
system.ruby.network.routers8.throttle6.msg_bytes.Response_Control::1     15869288                      
system.ruby.network.routers8.throttle6.msg_bytes.Response_Control::2     41955984                      
system.ruby.network.routers8.throttle6.msg_bytes.Writeback_Data::0    159771816                      
system.ruby.network.routers8.throttle6.msg_bytes.Writeback_Data::1       173880                      
system.ruby.network.routers8.throttle6.msg_bytes.Writeback_Control::0     17787904                      
system.ruby.network.routers8.throttle7.link_utilization     0.136339                      
system.ruby.network.routers8.throttle7.msg_count.Control::0      2276339                      
system.ruby.network.routers8.throttle7.msg_count.Response_Data::1      1484804                      
system.ruby.network.routers8.throttle7.msg_count.Response_Control::1       136175                      
system.ruby.network.routers8.throttle7.msg_bytes.Control::0     18210712                      
system.ruby.network.routers8.throttle7.msg_bytes.Response_Data::1    106905888                      
system.ruby.network.routers8.throttle7.msg_bytes.Response_Control::1      1089400                      
system.ruby.delayVCHist.vnet_0::bucket_size           16                       # delay histogram for vnet_0
system.ruby.delayVCHist.vnet_0::max_bucket          159                       # delay histogram for vnet_0
system.ruby.delayVCHist.vnet_0::samples      15181175                       # delay histogram for vnet_0
system.ruby.delayVCHist.vnet_0::mean         1.198243                       # delay histogram for vnet_0
system.ruby.delayVCHist.vnet_0::stdev        2.882365                       # delay histogram for vnet_0
system.ruby.delayVCHist.vnet_0           |    15170892     99.93%     99.93% |       10281      0.07%    100.00% |           1      0.00%    100.00% |           0      0.00%    100.00% |           0      0.00%    100.00% |           1      0.00%    100.00% |           0      0.00%    100.00% |           0      0.00%    100.00% |           0      0.00%    100.00% |           0      0.00%    100.00% # delay histogram for vnet_0
system.ruby.delayVCHist.vnet_0::total        15181175                       # delay histogram for vnet_0
system.ruby.delayVCHist.vnet_1::bucket_size            2                       # delay histogram for vnet_1
system.ruby.delayVCHist.vnet_1::max_bucket           19                       # delay histogram for vnet_1
system.ruby.delayVCHist.vnet_1::samples      20413011                       # delay histogram for vnet_1
system.ruby.delayVCHist.vnet_1::mean         0.173519                       # delay histogram for vnet_1
system.ruby.delayVCHist.vnet_1::stdev        1.170687                       # delay histogram for vnet_1
system.ruby.delayVCHist.vnet_1           |    19963575     97.80%     97.80% |        7873      0.04%     97.84% |        9111      0.04%     97.88% |       14257      0.07%     97.95% |      394225      1.93%     99.88% |       21433      0.10%     99.99% |        1004      0.00%     99.99% |         362      0.00%     99.99% |        1005      0.00%    100.00% |         166      0.00%    100.00% # delay histogram for vnet_1
system.ruby.delayVCHist.vnet_1::total        20413011                       # delay histogram for vnet_1
system.ruby.delayVCHist.vnet_2::bucket_size            2                       # delay histogram for vnet_2
system.ruby.delayVCHist.vnet_2::max_bucket           19                       # delay histogram for vnet_2
system.ruby.delayVCHist.vnet_2::samples       1673137                       # delay histogram for vnet_2
system.ruby.delayVCHist.vnet_2::mean         0.646205                       # delay histogram for vnet_2
system.ruby.delayVCHist.vnet_2::stdev        1.678854                       # delay histogram for vnet_2
system.ruby.delayVCHist.vnet_2           |     1456998     87.08%     87.08% |          55      0.00%     87.09% |      215968     12.91%     99.99% |          60      0.00%    100.00% |           3      0.00%    100.00% |           0      0.00%    100.00% |           0      0.00%    100.00% |          53      0.00%    100.00% |           0      0.00%    100.00% |           0      0.00%    100.00% # delay histogram for vnet_2
system.ruby.delayVCHist.vnet_2::total         1673137                       # delay histogram for vnet_2
system.ruby.LD.latency_hist::bucket_size           16                      
system.ruby.LD.latency_hist::max_bucket           159                      
system.ruby.LD.latency_hist::samples        437846337                      
system.ruby.LD.latency_hist::mean            1.209550                      
system.ruby.LD.latency_hist::gmean           1.026019                      
system.ruby.LD.latency_hist::stdev           2.732058                      
system.ruby.LD.latency_hist              |   434546234     99.25%     99.25% |     2535806      0.58%     99.83% |      402535      0.09%     99.92% |      190422      0.04%     99.96% |       94030      0.02%     99.98% |       76480      0.02%    100.00% |         690      0.00%    100.00% |         134      0.00%    100.00% |           6      0.00%    100.00% |           0      0.00%    100.00%
system.ruby.LD.latency_hist::total          437846337                      
system.ruby.LD.hit_latency_hist::bucket_size           16                      
system.ruby.LD.hit_latency_hist::max_bucket          159                      
system.ruby.LD.hit_latency_hist::samples    437846337                      
system.ruby.LD.hit_latency_hist::mean        1.209550                      
system.ruby.LD.hit_latency_hist::gmean       1.026019                      
system.ruby.LD.hit_latency_hist::stdev       2.732058                      
system.ruby.LD.hit_latency_hist          |   434546234     99.25%     99.25% |     2535806      0.58%     99.83% |      402535      0.09%     99.92% |      190422      0.04%     99.96% |       94030      0.02%     99.98% |       76480      0.02%    100.00% |         690      0.00%    100.00% |         134      0.00%    100.00% |           6      0.00%    100.00% |           0      0.00%    100.00%
system.ruby.LD.hit_latency_hist::total      437846337                      
system.ruby.ST.latency_hist::bucket_size           16                      
system.ruby.ST.latency_hist::max_bucket           159                      
system.ruby.ST.latency_hist::samples        226600622                      
system.ruby.ST.latency_hist::mean            1.738517                      
system.ruby.ST.latency_hist::gmean           1.042360                      
system.ruby.ST.latency_hist::stdev           7.703442                      
system.ruby.ST.latency_hist              |   224418034     99.04%     99.04% |      170821      0.08%     99.11% |          11      0.00%     99.11% |        3702      0.00%     99.11% |      650109      0.29%     99.40% |     1337850      0.59%     99.99% |       20028      0.01%    100.00% |          62      0.00%    100.00% |           5      0.00%    100.00% |           0      0.00%    100.00%
system.ruby.ST.latency_hist::total          226600622                      
system.ruby.ST.hit_latency_hist::bucket_size           16                      
system.ruby.ST.hit_latency_hist::max_bucket          159                      
system.ruby.ST.hit_latency_hist::samples    226600622                      
system.ruby.ST.hit_latency_hist::mean        1.738517                      
system.ruby.ST.hit_latency_hist::gmean       1.042360                      
system.ruby.ST.hit_latency_hist::stdev       7.703442                      
system.ruby.ST.hit_latency_hist          |   224418034     99.04%     99.04% |      170821      0.08%     99.11% |          11      0.00%     99.11% |        3702      0.00%     99.11% |      650109      0.29%     99.40% |     1337850      0.59%     99.99% |       20028      0.01%    100.00% |          62      0.00%    100.00% |           5      0.00%    100.00% |           0      0.00%    100.00%
system.ruby.ST.hit_latency_hist::total      226600622                      
system.ruby.IFETCH.latency_hist::bucket_size           16                      
system.ruby.IFETCH.latency_hist::max_bucket          159                      
system.ruby.IFETCH.latency_hist::samples   2249727482                      
system.ruby.IFETCH.latency_hist::mean        1.000139                      
system.ruby.IFETCH.latency_hist::gmean       1.000016                      
system.ruby.IFETCH.latency_hist::stdev       0.072662                      
system.ruby.IFETCH.latency_hist          |  2249716595    100.00%    100.00% |        9437      0.00%    100.00% |          23      0.00%    100.00% |         935      0.00%    100.00% |          61      0.00%    100.00% |         427      0.00%    100.00% |           4      0.00%    100.00% |           0      0.00%    100.00% |           0      0.00%    100.00% |           0      0.00%    100.00%
system.ruby.IFETCH.latency_hist::total     2249727482                      
system.ruby.IFETCH.hit_latency_hist::bucket_size           16                      
system.ruby.IFETCH.hit_latency_hist::max_bucket          159                      
system.ruby.IFETCH.hit_latency_hist::samples   2249727482                      
system.ruby.IFETCH.hit_latency_hist::mean     1.000139                      
system.ruby.IFETCH.hit_latency_hist::gmean     1.000016                      
system.ruby.IFETCH.hit_latency_hist::stdev     0.072662                      
system.ruby.IFETCH.hit_latency_hist      |  2249716595    100.00%    100.00% |        9437      0.00%    100.00% |          23      0.00%    100.00% |         935      0.00%    100.00% |          61      0.00%    100.00% |         427      0.00%    100.00% |           4      0.00%    100.00% |           0      0.00%    100.00% |           0      0.00%    100.00% |           0      0.00%    100.00%
system.ruby.IFETCH.hit_latency_hist::total   2249727482                      
system.ruby.RMW_Read.latency_hist::bucket_size            4                      
system.ruby.RMW_Read.latency_hist::max_bucket           39                      
system.ruby.RMW_Read.latency_hist::samples          452                      
system.ruby.RMW_Read.latency_hist::mean      1.774336                      
system.ruby.RMW_Read.latency_hist::gmean     1.112957                      
system.ruby.RMW_Read.latency_hist::stdev     4.291223                      
system.ruby.RMW_Read.latency_hist        |         436     96.46%     96.46% |           2      0.44%     96.90% |           0      0.00%     96.90% |           0      0.00%     96.90% |           0      0.00%     96.90% |           5      1.11%     98.01% |           3      0.66%     98.67% |           5      1.11%     99.78% |           1      0.22%    100.00% |           0      0.00%    100.00%
system.ruby.RMW_Read.latency_hist::total          452                      
system.ruby.RMW_Read.hit_latency_hist::bucket_size            4                      
system.ruby.RMW_Read.hit_latency_hist::max_bucket           39                      
system.ruby.RMW_Read.hit_latency_hist::samples          452                      
system.ruby.RMW_Read.hit_latency_hist::mean     1.774336                      
system.ruby.RMW_Read.hit_latency_hist::gmean     1.112957                      
system.ruby.RMW_Read.hit_latency_hist::stdev     4.291223                      
system.ruby.RMW_Read.hit_latency_hist    |         436     96.46%     96.46% |           2      0.44%     96.90% |           0      0.00%     96.90% |           0      0.00%     96.90% |           0      0.00%     96.90% |           5      1.11%     98.01% |           3      0.66%     98.67% |           5      1.11%     99.78% |           1      0.22%    100.00% |           0      0.00%    100.00%
system.ruby.RMW_Read.hit_latency_hist::total          452                      
system.ruby.Locked_RMW_Read.latency_hist::bucket_size           16                      
system.ruby.Locked_RMW_Read.latency_hist::max_bucket          159                      
system.ruby.Locked_RMW_Read.latency_hist::samples     50718283                      
system.ruby.Locked_RMW_Read.latency_hist::mean     1.000262                      
system.ruby.Locked_RMW_Read.latency_hist::gmean     1.000035                      
system.ruby.Locked_RMW_Read.latency_hist::stdev     0.081780                      
system.ruby.Locked_RMW_Read.latency_hist |    50717739    100.00%    100.00% |         539      0.00%    100.00% |           1      0.00%    100.00% |           2      0.00%    100.00% |           0      0.00%    100.00% |           1      0.00%    100.00% |           0      0.00%    100.00% |           1      0.00%    100.00% |           0      0.00%    100.00% |           0      0.00%    100.00%
system.ruby.Locked_RMW_Read.latency_hist::total     50718283                      
system.ruby.Locked_RMW_Read.hit_latency_hist::bucket_size           16                      
system.ruby.Locked_RMW_Read.hit_latency_hist::max_bucket          159                      
system.ruby.Locked_RMW_Read.hit_latency_hist::samples     50718283                      
system.ruby.Locked_RMW_Read.hit_latency_hist::mean     1.000262                      
system.ruby.Locked_RMW_Read.hit_latency_hist::gmean     1.000035                      
system.ruby.Locked_RMW_Read.hit_latency_hist::stdev     0.081780                      
system.ruby.Locked_RMW_Read.hit_latency_hist |    50717739    100.00%    100.00% |         539      0.00%    100.00% |           1      0.00%    100.00% |           2      0.00%    100.00% |           0      0.00%    100.00% |           1      0.00%    100.00% |           0      0.00%    100.00% |           1      0.00%    100.00% |           0      0.00%    100.00% |           0      0.00%    100.00%
system.ruby.Locked_RMW_Read.hit_latency_hist::total     50718283                      
system.ruby.Locked_RMW_Write.latency_hist::bucket_size            1                      
system.ruby.Locked_RMW_Write.latency_hist::max_bucket            9                      
system.ruby.Locked_RMW_Write.latency_hist::samples     50718283                      
system.ruby.Locked_RMW_Write.latency_hist::mean            1                      
system.ruby.Locked_RMW_Write.latency_hist::gmean            1                      
system.ruby.Locked_RMW_Write.latency_hist |           0      0.00%      0.00% |    50718283    100.00%    100.00% |           0      0.00%    100.00% |           0      0.00%    100.00% |           0      0.00%    100.00% |           0      0.00%    100.00% |           0      0.00%    100.00% |           0      0.00%    100.00% |           0      0.00%    100.00% |           0      0.00%    100.00%
system.ruby.Locked_RMW_Write.latency_hist::total     50718283                      
system.ruby.Locked_RMW_Write.hit_latency_hist::bucket_size            1                      
system.ruby.Locked_RMW_Write.hit_latency_hist::max_bucket            9                      
system.ruby.Locked_RMW_Write.hit_latency_hist::samples     50718283                      
system.ruby.Locked_RMW_Write.hit_latency_hist::mean            1                      
system.ruby.Locked_RMW_Write.hit_latency_hist::gmean            1                      
system.ruby.Locked_RMW_Write.hit_latency_hist |           0      0.00%      0.00% |    50718283    100.00%    100.00% |           0      0.00%    100.00% |           0      0.00%    100.00% |           0      0.00%    100.00% |           0      0.00%    100.00% |           0      0.00%    100.00% |           0      0.00%    100.00% |           0      0.00%    100.00% |           0      0.00%    100.00%
system.ruby.Locked_RMW_Write.hit_latency_hist::total     50718283                      
system.ruby.Directory_Controller.Fetch        2276339      0.00%      0.00%
system.ruby.Directory_Controller.Data         1484804      0.00%      0.00%
system.ruby.Directory_Controller.Memory_Data      2276339      0.00%      0.00%
system.ruby.Directory_Controller.Memory_Ack      1484804      0.00%      0.00%
system.ruby.Directory_Controller.CleanReplacement       136175      0.00%      0.00%
system.ruby.Directory_Controller.I.Fetch      2276339      0.00%      0.00%
system.ruby.Directory_Controller.M.Data       1484804      0.00%      0.00%
system.ruby.Directory_Controller.M.CleanReplacement       136175      0.00%      0.00%
system.ruby.Directory_Controller.IM.Memory_Data      2276339      0.00%      0.00%
system.ruby.Directory_Controller.MI.Memory_Ack      1484804      0.00%      0.00%
system.ruby.L0Cache_Controller.Load      |   380903043     86.99%     86.99% |    28471647      6.50%     93.50% |    28471647      6.50%    100.00%
system.ruby.L0Cache_Controller.Load::total    437846337                      
system.ruby.L0Cache_Controller.Ifetch    |  2100716102     93.38%     93.38% |    74505690      3.31%     96.69% |    74505690      3.31%    100.00%
system.ruby.L0Cache_Controller.Ifetch::total   2249727482                      
system.ruby.L0Cache_Controller.Store     |   327713864     99.90%     99.90% |      161888      0.05%     99.95% |      161888      0.05%    100.00%
system.ruby.L0Cache_Controller.Store::total    328037640                      
system.ruby.L0Cache_Controller.Inv       |        9861      1.08%      1.08% |      405474     44.61%     45.69% |      493611     54.31%    100.00%
system.ruby.L0Cache_Controller.Inv::total       908946                      
system.ruby.L0Cache_Controller.L0_Replacement |     2171775     39.42%     39.42% |     1591632     28.89%     68.31% |     1746147     31.69%    100.00%
system.ruby.L0Cache_Controller.L0_Replacement::total      5509554                      
system.ruby.L0Cache_Controller.Data      |          40      0.01%      0.01% |      210860     32.01%     32.02% |      447745     67.98%    100.00%
system.ruby.L0Cache_Controller.Data::total       658645                      
system.ruby.L0Cache_Controller.Data_Exclusive |     2182328     42.32%     42.32% |     1602882     31.09%     73.41% |     1370975     26.59%    100.00%
system.ruby.L0Cache_Controller.Data_Exclusive::total      5156185                      
system.ruby.L0Cache_Controller.NP.Load   |        2760      0.08%      0.08% |     1806486     49.89%     49.97% |     1811466     50.03%    100.00%
system.ruby.L0Cache_Controller.NP.Load::total      3620712                      
system.ruby.L0Cache_Controller.NP.Ifetch |        6601     60.26%     60.26% |        2178     19.88%     80.14% |        2176     19.86%    100.00%
system.ruby.L0Cache_Controller.NP.Ifetch::total        10955                      
system.ruby.L0Cache_Controller.NP.Store  |     2172987     99.53%     99.53% |        5077      0.23%     99.77% |        5077      0.23%    100.00%
system.ruby.L0Cache_Controller.NP.Store::total      2183141                      
system.ruby.L0Cache_Controller.NP.Inv    |           1      0.00%      0.00% |      183885     30.37%     30.37% |      421559     69.63%    100.00%
system.ruby.L0Cache_Controller.NP.Inv::total       605445                      
system.ruby.L0Cache_Controller.S.Load    |    14007795     36.92%     36.92% |    11327044     29.85%     66.77% |    12606659     33.23%    100.00%
system.ruby.L0Cache_Controller.S.Load::total     37941498                      
system.ruby.L0Cache_Controller.S.Ifetch  |         418      0.00%      0.00% |    74503420     50.00%     50.00% |    74503484     50.00%    100.00%
system.ruby.L0Cache_Controller.S.Ifetch::total    149007322                      
system.ruby.L0Cache_Controller.S.Store   |          20     90.91%     90.91% |           1      4.55%     95.45% |           1      4.55%    100.00%
system.ruby.L0Cache_Controller.S.Store::total           22                      
system.ruby.L0Cache_Controller.S.Inv     |           1      0.00%      0.00% |       23160     50.80%     50.80% |       22428     49.20%    100.00%
system.ruby.L0Cache_Controller.S.Inv::total        45589                      
system.ruby.L0Cache_Controller.S.L0_Replacement |          10      0.00%      0.00% |      187235     30.59%     30.59% |      424845     69.41%    100.00%
system.ruby.L0Cache_Controller.S.L0_Replacement::total       612090                      
system.ruby.L0Cache_Controller.E.Load    |    50634814     63.40%     63.40% |    15257548     19.10%     82.50% |    13972997     17.50%    100.00%
system.ruby.L0Cache_Controller.E.Load::total     79865359                      
system.ruby.L0Cache_Controller.E.Ifetch  |  2100709083    100.00%    100.00% |          92      0.00%    100.00% |          30      0.00%    100.00%
system.ruby.L0Cache_Controller.E.Ifetch::total   2100709205                      
[...]
system.ruby.L1Cache_Controller.L0_Invalidate_Else::total       432274                      
system.ruby.L1Cache_Controller.L1_Replacement |     2177386     39.73%     39.73% |     1649751     30.10%     69.82% |     1653948     30.18%    100.00%
system.ruby.L1Cache_Controller.L1_Replacement::total      5481085                      
system.ruby.L1Cache_Controller.Fwd_GETX  |           0      0.00%      0.00% |           4     80.00%     80.00% |           1     20.00%    100.00%
system.ruby.L1Cache_Controller.Fwd_GETX::total            5                      
system.ruby.L1Cache_Controller.Fwd_GETS  |        1485      0.37%      0.37% |      315022     78.94%     79.31% |       82555     20.69%    100.00%
system.ruby.L1Cache_Controller.Fwd_GETS::total       399062                      
system.ruby.L1Cache_Controller.Data      |           1     33.33%     33.33% |           1     33.33%     66.67% |           1     33.33%    100.00%
system.ruby.L1Cache_Controller.Data::total            3                      
system.ruby.L1Cache_Controller.Data_Exclusive |        9212      0.35%      0.35% |     1440702     54.11%     54.46% |     1212383     45.54%    100.00%
system.ruby.L1Cache_Controller.Data_Exclusive::total      2662297                      
system.ruby.L1Cache_Controller.DataS_fromL1 |          14      0.00%      0.00% |       83518     20.93%     20.93% |      315523     79.07%    100.00%
system.ruby.L1Cache_Controller.DataS_fromL1::total       399055                      
system.ruby.L1Cache_Controller.Data_all_Acks |     2172986     89.32%     89.32% |      129631      5.33%     94.65% |      130142      5.35%    100.00%
system.ruby.L1Cache_Controller.Data_all_Acks::total      2432759                      
system.ruby.L1Cache_Controller.L0_Ack    |        6192      0.68%      0.68% |      405028     44.79%     45.47% |      493162     54.53%    100.00%
system.ruby.L1Cache_Controller.L0_Ack::total       904382                      
system.ruby.L1Cache_Controller.Ack       |          29     93.55%     93.55% |           1      3.23%     96.77% |           1      3.23%    100.00%
system.ruby.L1Cache_Controller.Ack::total           31                      
system.ruby.L1Cache_Controller.Ack_all   |          21     84.00%     84.00% |           2      8.00%     92.00% |           2      8.00%    100.00%
system.ruby.L1Cache_Controller.Ack_all::total           25                      
system.ruby.L1Cache_Controller.WB_Ack    |     2177382     49.01%     49.01% |     1130518     25.45%     74.46% |     1134641     25.54%    100.00%
system.ruby.L1Cache_Controller.WB_Ack::total      4442541                      
system.ruby.L1Cache_Controller.NP.Load   |        9241      0.28%      0.28% |     1648776     49.80%     50.08% |     1652973     49.92%    100.00%
system.ruby.L1Cache_Controller.NP.Load::total      3310990                      
system.ruby.L1Cache_Controller.NP.Store  |     2172972     99.53%     99.53% |        5076      0.23%     99.77% |        5076      0.23%    100.00%
system.ruby.L1Cache_Controller.NP.Store::total      2183124                      
system.ruby.L1Cache_Controller.NP.Inv    |           0      0.00%      0.00% |      181340     50.00%     50.00% |      181339     50.00%    100.00%
system.ruby.L1Cache_Controller.NP.Inv::total       362679                      
system.ruby.L1Cache_Controller.I.L1_Replacement |           0      0.00%      0.00% |           2    100.00%    100.00% |           0      0.00%    100.00%
system.ruby.L1Cache_Controller.I.L1_Replacement::total            2                      
system.ruby.L1Cache_Controller.S.Load    |           3     60.00%     60.00% |           0      0.00%     60.00% |           2     40.00%    100.00%
system.ruby.L1Cache_Controller.S.Load::total            5                      
system.ruby.L1Cache_Controller.S.Store   |          20     90.91%     90.91% |           1      4.55%     95.45% |           1      4.55%    100.00%
system.ruby.L1Cache_Controller.S.Store::total           22                      
system.ruby.L1Cache_Controller.S.L0_Invalidate_Own |           1      0.00%      0.00% |      207034     31.80%     31.80% |      443978     68.20%    100.00%
system.ruby.L1Cache_Controller.S.L0_Invalidate_Own::total       651013                      
system.ruby.L1Cache_Controller.S.L0_Invalidate_Else |           1      7.14%      7.14% |           6     42.86%     50.00% |           7     50.00%    100.00%
system.ruby.L1Cache_Controller.S.L0_Invalidate_Else::total           14                      
system.ruby.L1Cache_Controller.SS.Load   |           8      0.08%      0.08% |        2786     28.01%     28.09% |        7153     71.91%    100.00%
system.ruby.L1Cache_Controller.SS.Load::total         9947                      
system.ruby.L1Cache_Controller.SS.Inv    |           6     20.00%     20.00% |          12     40.00%     60.00% |          12     40.00%    100.00%
system.ruby.L1Cache_Controller.SS.Inv::total           30                      
system.ruby.L1Cache_Controller.SS.L1_Replacement |           4      0.00%      0.00% |      519231     50.00%     50.00% |      519307     50.00%    100.00%
system.ruby.L1Cache_Controller.SS.L1_Replacement::total      1038542                      
system.ruby.L1Cache_Controller.E.WriteBack |         866      0.04%      0.04% |     1243253     51.64%     51.68% |     1163339     48.32%    100.00%
system.ruby.L1Cache_Controller.E.WriteBack::total      2407458                      
system.ruby.L1Cache_Controller.E.L0_Invalidate_Own |        7737     20.01%     20.01% |       15321     39.62%     59.63% |       15613     40.37%    100.00%
system.ruby.L1Cache_Controller.E.L0_Invalidate_Own::total        38671                      
system.ruby.L1Cache_Controller.E.L0_Invalidate_Else |          12      0.01%      0.01% |      182162     84.48%     84.49% |       33444     15.51%    100.00%
system.ruby.L1Cache_Controller.E.L0_Invalidate_Else::total       215618                      
system.ruby.L1Cache_Controller.EE.Load   |           0      0.00%      0.00% |          37     69.81%     69.81% |          16     30.19%    100.00%
system.ruby.L1Cache_Controller.EE.Load::total           53                      
system.ruby.L1Cache_Controller.EE.Inv    |           7    100.00%    100.00% |           0      0.00%    100.00% |           0      0.00%    100.00%
system.ruby.L1Cache_Controller.EE.Inv::total            7                      
system.ruby.L1Cache_Controller.EE.L1_Replacement |        6148     16.96%     16.96% |       14927     41.18%     58.14% |       15175     41.86%    100.00%
system.ruby.L1Cache_Controller.EE.L1_Replacement::total        36250                      
system.ruby.L1Cache_Controller.EE.Fwd_GETX |           0      0.00%      0.00% |           1     50.00%     50.00% |           1     50.00%    100.00%
system.ruby.L1Cache_Controller.EE.Fwd_GETX::total            2                      
system.ruby.L1Cache_Controller.EE.Fwd_GETS |           5      0.00%      0.00% |      182119     84.49%     84.49% |       33425     15.51%    100.00%
system.ruby.L1Cache_Controller.EE.Fwd_GETS::total       215549                      
system.ruby.L1Cache_Controller.M.WriteBack |     2170899     87.18%     87.18% |      161139      6.47%     93.66% |      157961      6.34%    100.00%
system.ruby.L1Cache_Controller.M.WriteBack::total      2489999                      
system.ruby.L1Cache_Controller.M.L0_Invalidate_Own |        1618     51.78%     51.78% |         943     30.18%     81.95% |         564     18.05%    100.00%
system.ruby.L1Cache_Controller.M.L0_Invalidate_Own::total         3125                      
system.ruby.L1Cache_Controller.M.L0_Invalidate_Else |         492     97.43%     97.43% |           8      1.58%     99.01% |           5      0.99%    100.00%
system.ruby.L1Cache_Controller.M.L0_Invalidate_Else::total          505                      
system.ruby.L1Cache_Controller.MM.Load   |         109      0.04%      0.04% |      157065     50.56%     50.59% |      153498     49.41%    100.00%
system.ruby.L1Cache_Controller.MM.Load::total       310672                      
system.ruby.L1Cache_Controller.MM.Store  |          15     88.24%     88.24% |           1      5.88%     94.12% |           1      5.88%    100.00%
system.ruby.L1Cache_Controller.MM.Store::total           17                      
system.ruby.L1Cache_Controller.MM.Inv    |        2405     99.59%     99.59% |           5      0.21%     99.79% |           5      0.21%    100.00%
system.ruby.L1Cache_Controller.MM.Inv::total         2415                      
system.ruby.L1Cache_Controller.MM.L1_Replacement |     2171234     49.28%     49.28% |     1115591     25.32%     74.59% |     1119466     25.41%    100.00%
system.ruby.L1Cache_Controller.MM.L1_Replacement::total      4406291                      
system.ruby.L1Cache_Controller.MM.Fwd_GETX |           0      0.00%      0.00% |           3    100.00%    100.00% |           0      0.00%    100.00%
system.ruby.L1Cache_Controller.MM.Fwd_GETX::total            3                      
system.ruby.L1Cache_Controller.MM.Fwd_GETS |        1480      0.81%      0.81% |      132872     72.42%     73.22% |       49128     26.78%    100.00%
system.ruby.L1Cache_Controller.MM.Fwd_GETS::total       183480                      
system.ruby.L1Cache_Controller.IS.Data_Exclusive |        9212      0.35%      0.35% |     1440702     54.11%     54.46% |     1212383     45.54%    100.00%
system.ruby.L1Cache_Controller.IS.Data_Exclusive::total      2662297                      
system.ruby.L1Cache_Controller.IS.DataS_fromL1 |          14      0.00%      0.00% |       83518     20.93%     20.93% |      315523     79.07%    100.00%
system.ruby.L1Cache_Controller.IS.DataS_fromL1::total       399055                      
system.ruby.L1Cache_Controller.IS.Data_all_Acks |          15      0.01%      0.01% |      124556     49.89%     49.90% |      125067     50.10%    100.00%
system.ruby.L1Cache_Controller.IS.Data_all_Acks::total       249638                      
system.ruby.L1Cache_Controller.IM.Data   |           1     33.33%     33.33% |           1     33.33%     66.67% |           1     33.33%    100.00%
system.ruby.L1Cache_Controller.IM.Data::total            3                      
system.ruby.L1Cache_Controller.IM.Data_all_Acks |     2172971     99.54%     99.54% |        5075      0.23%     99.77% |        5075      0.23%    100.00%
system.ruby.L1Cache_Controller.IM.Data_all_Acks::total      2183121                      
system.ruby.L1Cache_Controller.SM.Ack    |          29     93.55%     93.55% |           1      3.23%     96.77% |           1      3.23%    100.00%
system.ruby.L1Cache_Controller.SM.Ack::total           31                      
system.ruby.L1Cache_Controller.SM.Ack_all |          21     84.00%     84.00% |           2      8.00%     92.00% |           2      8.00%    100.00%
system.ruby.L1Cache_Controller.SM.Ack_all::total           25                      
system.ruby.L1Cache_Controller.M_I.Fwd_GETS |           0      0.00%      0.00% |          26    100.00%    100.00% |           0      0.00%    100.00%
system.ruby.L1Cache_Controller.M_I.Fwd_GETS::total           26                      
system.ruby.L1Cache_Controller.M_I.WB_Ack |     2177382     49.01%     49.01% |     1130492     25.45%     74.46% |     1134641     25.54%    100.00%
system.ruby.L1Cache_Controller.M_I.WB_Ack::total      4442515                      
system.ruby.L1Cache_Controller.SINK_WB_ACK.WB_Ack |           0      0.00%      0.00% |          26    100.00%    100.00% |           0      0.00%    100.00%
system.ruby.L1Cache_Controller.SINK_WB_ACK.WB_Ack::total           26                      
system.ruby.L1Cache_Controller.S_IL0.L0_Invalidate_Own |           1      0.00%      0.00% |      207034     31.80%     31.80% |      443978     68.20%    100.00%
system.ruby.L1Cache_Controller.S_IL0.L0_Invalidate_Own::total       651013                      
system.ruby.L1Cache_Controller.S_IL0.L0_Invalidate_Else |           1      7.14%      7.14% |           6     42.86%     50.00% |           7     50.00%    100.00%
system.ruby.L1Cache_Controller.S_IL0.L0_Invalidate_Else::total           14                      
system.ruby.L1Cache_Controller.S_IL0.L0_Ack |           2      0.00%      0.00% |      207040     31.80%     31.80% |      443985     68.20%    100.00%
system.ruby.L1Cache_Controller.S_IL0.L0_Ack::total       651027                      
system.ruby.L1Cache_Controller.E_IL0.WriteBack |           0      0.00%      0.00% |           5     71.43%     71.43% |           2     28.57%    100.00%
system.ruby.L1Cache_Controller.E_IL0.WriteBack::total            7                      
system.ruby.L1Cache_Controller.E_IL0.L0_DataAck |        1589     65.63%     65.63% |         394     16.27%     81.91% |         438     18.09%    100.00%
system.ruby.L1Cache_Controller.E_IL0.L0_DataAck::total         2421                      
system.ruby.L1Cache_Controller.E_IL0.L0_Invalidate_Own |        7737     20.01%     20.01% |       15321     39.62%     59.63% |       15613     40.37%    100.00%
system.ruby.L1Cache_Controller.E_IL0.L0_Invalidate_Own::total        38671                      
system.ruby.L1Cache_Controller.E_IL0.L0_Invalidate_Else |          12      0.01%      0.01% |      182162     84.48%     84.49% |       33444     15.51%    100.00%
system.ruby.L1Cache_Controller.E_IL0.L0_Invalidate_Else::total       215618                      
system.ruby.L1Cache_Controller.E_IL0.L0_Ack |        6160      2.45%      2.45% |      197084     78.25%     80.70% |       48617     19.30%    100.00%
system.ruby.L1Cache_Controller.E_IL0.L0_Ack::total       251861                      
system.ruby.L1Cache_Controller.M_IL0.L0_DataAck |        2080     97.06%     97.06% |          52      2.43%     99.49% |          11      0.51%    100.00%
system.ruby.L1Cache_Controller.M_IL0.L0_DataAck::total         2143                      
system.ruby.L1Cache_Controller.M_IL0.L0_Invalidate_Own |        1618     51.78%     51.78% |         943     30.18%     81.95% |         564     18.05%    100.00%
system.ruby.L1Cache_Controller.M_IL0.L0_Invalidate_Own::total         3125                      
system.ruby.L1Cache_Controller.M_IL0.L0_Invalidate_Else |         492     97.43%     97.43% |           8      1.58%     99.01% |           5      0.99%    100.00%
system.ruby.L1Cache_Controller.M_IL0.L0_Invalidate_Else::total          505                      
system.ruby.L1Cache_Controller.M_IL0.L0_Ack |          30      2.02%      2.02% |         899     60.46%     62.47% |         558     37.53%    100.00%
system.ruby.L1Cache_Controller.M_IL0.L0_Ack::total         1487                      
system.ruby.L1Cache_Controller.MM_IL0.Fwd_GETS |           0      0.00%      0.00% |           5     71.43%     71.43% |           2     28.57%    100.00%
system.ruby.L1Cache_Controller.MM_IL0.Fwd_GETS::total            7                      
system.ruby.L1Cache_Controller.MM_IL0.L0_Ack |           0      0.00%      0.00% |           5     71.43%     71.43% |           2     28.57%    100.00%
system.ruby.L1Cache_Controller.MM_IL0.L0_Ack::total            7                      
system.ruby.L2Cache_Controller.L1_GETS        3313241      0.00%      0.00%
system.ruby.L2Cache_Controller.L1_GETX        2183125      0.00%      0.00%
system.ruby.L2Cache_Controller.L1_UPGRADE           22      0.00%      0.00%
system.ruby.L2Cache_Controller.L1_PUTX        4442567      0.00%      0.00%
system.ruby.L2Cache_Controller.L2_Replacement      1482394      0.00%      0.00%
system.ruby.L2Cache_Controller.L2_Replacement_clean       138585      0.00%      0.00%
system.ruby.L2Cache_Controller.Mem_Data       2276339      0.00%      0.00%
system.ruby.L2Cache_Controller.Mem_Ack        1620979      0.00%      0.00%
system.ruby.L2Cache_Controller.WB_Data         219451      0.00%      0.00%
system.ruby.L2Cache_Controller.WB_Data_clean       182019      0.00%      0.00%
system.ruby.L2Cache_Controller.Ack             181338      0.00%      0.00%
system.ruby.L2Cache_Controller.Ack_all         181344      0.00%      0.00%
system.ruby.L2Cache_Controller.Unblock         399055      0.00%      0.00%
system.ruby.L2Cache_Controller.Exclusive_Unblock      4845443      0.00%      0.00%
system.ruby.L2Cache_Controller.NP.L1_GETS       264580      0.00%      0.00%
system.ruby.L2Cache_Controller.NP.L1_GETX      2011759      0.00%      0.00%
system.ruby.L2Cache_Controller.SS.L1_GETS        45964      0.00%      0.00%
system.ruby.L2Cache_Controller.SS.L1_GETX            3      0.00%      0.00%
system.ruby.L2Cache_Controller.SS.L1_UPGRADE           22      0.00%      0.00%
system.ruby.L2Cache_Controller.SS.L1_PUTX           26      0.00%      0.00%
system.ruby.L2Cache_Controller.SS.L2_Replacement        65685      0.00%      0.00%
system.ruby.L2Cache_Controller.SS.L2_Replacement_clean       115652      0.00%      0.00%
system.ruby.L2Cache_Controller.M.L1_GETS      2499554      0.00%      0.00%
system.ruby.L2Cache_Controller.M.L1_GETX       171357      0.00%      0.00%
system.ruby.L2Cache_Controller.M.L2_Replacement      1416706      0.00%      0.00%
system.ruby.L2Cache_Controller.M.L2_Replacement_clean        20514      0.00%      0.00%
system.ruby.L2Cache_Controller.MT.L1_GETS       399055      0.00%      0.00%
system.ruby.L2Cache_Controller.MT.L1_GETX            5      0.00%      0.00%
system.ruby.L2Cache_Controller.MT.L1_PUTX      4442515      0.00%      0.00%
system.ruby.L2Cache_Controller.MT.L2_Replacement            3      0.00%      0.00%
system.ruby.L2Cache_Controller.MT.L2_Replacement_clean         2419      0.00%      0.00%
system.ruby.L2Cache_Controller.M_I.Mem_Ack      1620979      0.00%      0.00%
system.ruby.L2Cache_Controller.MT_I.Ack_all            3      0.00%      0.00%
system.ruby.L2Cache_Controller.MCT_I.WB_Data         2410      0.00%      0.00%
system.ruby.L2Cache_Controller.MCT_I.WB_Data_clean            5      0.00%      0.00%
system.ruby.L2Cache_Controller.MCT_I.Ack_all            4      0.00%      0.00%
system.ruby.L2Cache_Controller.I_I.Ack         115652      0.00%      0.00%
system.ruby.L2Cache_Controller.I_I.Ack_all       115652      0.00%      0.00%
system.ruby.L2Cache_Controller.S_I.Ack          65686      0.00%      0.00%
system.ruby.L2Cache_Controller.S_I.Ack_all        65685      0.00%      0.00%
system.ruby.L2Cache_Controller.ISS.L1_GETS       101837      0.00%      0.00%
system.ruby.L2Cache_Controller.ISS.Mem_Data       162743      0.00%      0.00%
system.ruby.L2Cache_Controller.IS.Mem_Data       101837      0.00%      0.00%
system.ruby.L2Cache_Controller.IM.L1_GETX            1      0.00%      0.00%
system.ruby.L2Cache_Controller.IM.Mem_Data      2011759      0.00%      0.00%
system.ruby.L2Cache_Controller.SS_MB.L1_GETS            1      0.00%      0.00%
system.ruby.L2Cache_Controller.SS_MB.Exclusive_Unblock           25      0.00%      0.00%
system.ruby.L2Cache_Controller.MT_MB.L1_GETS         1043      0.00%      0.00%
system.ruby.L2Cache_Controller.MT_MB.Exclusive_Unblock      4845418      0.00%      0.00%
system.ruby.L2Cache_Controller.MT_IIB.L1_GETS         1206      0.00%      0.00%
system.ruby.L2Cache_Controller.MT_IIB.L1_PUTX           26      0.00%      0.00%
system.ruby.L2Cache_Controller.MT_IIB.WB_Data       216714      0.00%      0.00%
system.ruby.L2Cache_Controller.MT_IIB.WB_Data_clean       181595      0.00%      0.00%
system.ruby.L2Cache_Controller.MT_IIB.Unblock          746      0.00%      0.00%
system.ruby.L2Cache_Controller.MT_IB.WB_Data          327      0.00%      0.00%
system.ruby.L2Cache_Controller.MT_IB.WB_Data_clean          419      0.00%      0.00%
system.ruby.L2Cache_Controller.MT_SB.L1_GETS            1      0.00%      0.00%
system.ruby.L2Cache_Controller.MT_SB.Unblock       398309      0.00%      0.00%

---------- End Simulation Statistics   ----------
