
---------- Begin Simulation Statistics ----------
sim_seconds                                  0.267267                       # Number of seconds simulated
sim_ticks                                267267429500                       # Number of ticks simulated
final_tick                               267267429500                       # Number of ticks from beginning of simulation (restored from checkpoints and never reset)
sim_freq                                 1000000000000                       # Frequency of simulated ticks
host_inst_rate                                 151075                       # Simulator instruction rate (inst/s)
host_op_rate                                   379907                       # Simulator op (including micro ops) rate (op/s)
host_tick_rate                              224187773                       # Simulator tick rate (ticks/s)
host_mem_usage                                 801652                       # Number of bytes of host memory used
host_seconds                                  1192.16                       # Real time elapsed on the host
sim_insts                                   180104807                       # Number of instructions simulated
sim_ops                                     452909858                       # Number of ops (including micro ops) simulated
system.voltage_domain.voltage                       1                       # Voltage in Volts
system.clk_domain.clock                          1000                       # Clock period in ticks
system.mem_ctrls.bytes_read::ruby.dir_cntrl0      6633472                       # Number of bytes read from this memory
system.mem_ctrls.bytes_read::total            6633472                       # Number of bytes read from this memory
system.mem_ctrls.num_reads::ruby.dir_cntrl0       103648                       # Number of read requests responded to by this memory
system.mem_ctrls.num_reads::total              103648                       # Number of read requests responded to by this memory
system.mem_ctrls.bw_read::ruby.dir_cntrl0     24819605                       # Total read bandwidth from this memory (bytes/s)
system.mem_ctrls.bw_read::total              24819605                       # Total read bandwidth from this memory (bytes/s)
system.mem_ctrls.bw_total::ruby.dir_cntrl0     24819605                       # Total bandwidth to/from this memory (bytes/s)
system.mem_ctrls.bw_total::total             24819605                       # Total bandwidth to/from this memory (bytes/s)
system.mem_ctrls.readReqs                      103648                       # Number of read requests accepted
system.mem_ctrls.writeReqs                          0                       # Number of write requests accepted
system.mem_ctrls.readBursts                    103648                       # Number of DRAM read bursts, including those serviced by the write queue
system.mem_ctrls.writeBursts                        0                       # Number of DRAM write bursts, including those merged in the write queue
system.mem_ctrls.bytesReadDRAM                6633472                       # Total number of bytes read from DRAM
system.mem_ctrls.bytesReadWrQ                       0                       # Total number of bytes read from write queue
system.mem_ctrls.bytesWritten                       0                       # Total number of bytes written to DRAM
system.mem_ctrls.bytesReadSys                 6633472                       # Total read bytes from the system interface side
system.mem_ctrls.bytesWrittenSys                    0                       # Total written bytes from the system interface side
system.mem_ctrls.servicedByWrQ                      0                       # Number of DRAM read bursts serviced by the write queue
system.mem_ctrls.mergedWrBursts                     0                       # Number of DRAM write bursts merged with an existing one
system.mem_ctrls.neitherReadNorWriteReqs            0                       # Number of requests that are neither read nor write
system.mem_ctrls.perBankRdBursts::0              6486                       # Per bank write bursts
system.mem_ctrls.perBankRdBursts::1              6512                       # Per bank write bursts
system.mem_ctrls.perBankRdBursts::2              6537                       # Per bank write bursts
system.mem_ctrls.perBankRdBursts::3              6346                       # Per bank write bursts
system.mem_ctrls.perBankRdBursts::4              6345                       # Per bank write bursts
system.mem_ctrls.perBankRdBursts::5              6392                       # Per bank write bursts
system.mem_ctrls.perBankRdBursts::6              6428                       # Per bank write bursts
system.mem_ctrls.perBankRdBursts::7              6419                       # Per bank write bursts
system.mem_ctrls.perBankRdBursts::8              6442                       # Per bank write bursts
system.mem_ctrls.perBankRdBursts::9              6566                       # Per bank write bursts
system.mem_ctrls.perBankRdBursts::10             6633                       # Per bank write bursts
system.mem_ctrls.perBankRdBursts::11             6674                       # Per bank write bursts
system.mem_ctrls.perBankRdBursts::12             6497                       # Per bank write bursts
system.mem_ctrls.perBankRdBursts::13             6483                       # Per bank write bursts
system.mem_ctrls.perBankRdBursts::14             6443                       # Per bank write bursts
system.mem_ctrls.perBankRdBursts::15             6445                       # Per bank write bursts
system.mem_ctrls.perBankWrBursts::0                 0                       # Per bank write bursts
system.mem_ctrls.perBankWrBursts::1                 0                       # Per bank write bursts
system.mem_ctrls.perBankWrBursts::2                 0                       # Per bank write bursts
system.mem_ctrls.perBankWrBursts::3                 0                       # Per bank write bursts
system.mem_ctrls.perBankWrBursts::4                 0                       # Per bank write bursts
system.mem_ctrls.perBankWrBursts::5                 0                       # Per bank write bursts
system.mem_ctrls.perBankWrBursts::6                 0                       # Per bank write bursts
system.mem_ctrls.perBankWrBursts::7                 0                       # Per bank write bursts
system.mem_ctrls.perBankWrBursts::8                 0                       # Per bank write bursts
system.mem_ctrls.perBankWrBursts::9                 0                       # Per bank write bursts
system.mem_ctrls.perBankWrBursts::10                0                       # Per bank write bursts
system.mem_ctrls.perBankWrBursts::11                0                       # Per bank write bursts
system.mem_ctrls.perBankWrBursts::12                0                       # Per bank write bursts
system.mem_ctrls.perBankWrBursts::13                0                       # Per bank write bursts
system.mem_ctrls.perBankWrBursts::14                0                       # Per bank write bursts
system.mem_ctrls.perBankWrBursts::15                0                       # Per bank write bursts
system.mem_ctrls.numRdRetry                         0                       # Number of times read queue was full causing retry
system.mem_ctrls.numWrRetry                         0                       # Number of times write queue was full causing retry
system.mem_ctrls.totGap                  267267368500                       # Total gap between requests
system.mem_ctrls.readPktSize::0                     0                       # Read request sizes (log2)
system.mem_ctrls.readPktSize::1                     0                       # Read request sizes (log2)
system.mem_ctrls.readPktSize::2                     0                       # Read request sizes (log2)
system.mem_ctrls.readPktSize::3                     0                       # Read request sizes (log2)
system.mem_ctrls.readPktSize::4                     0                       # Read request sizes (log2)
system.mem_ctrls.readPktSize::5                     0                       # Read request sizes (log2)
system.mem_ctrls.readPktSize::6                103648                       # Read request sizes (log2)
system.mem_ctrls.writePktSize::0                    0                       # Write request sizes (log2)
system.mem_ctrls.writePktSize::1                    0                       # Write request sizes (log2)
system.mem_ctrls.writePktSize::2                    0                       # Write request sizes (log2)
system.mem_ctrls.writePktSize::3                    0                       # Write request sizes (log2)
system.mem_ctrls.writePktSize::4                    0                       # Write request sizes (log2)
system.mem_ctrls.writePktSize::5                    0                       # Write request sizes (log2)
system.mem_ctrls.writePktSize::6                    0                       # Write request sizes (log2)
system.mem_ctrls.rdQLenPdf::0                  101896                       # What read queue length does an incoming req see
system.mem_ctrls.rdQLenPdf::1                    1752                       # What read queue length does an incoming req see
system.mem_ctrls.rdQLenPdf::2                       0                       # What read queue length does an incoming req see
system.mem_ctrls.rdQLenPdf::3                       0                       # What read queue length does an incoming req see
system.mem_ctrls.rdQLenPdf::4                       0                       # What read queue length does an incoming req see
system.mem_ctrls.rdQLenPdf::5                       0                       # What read queue length does an incoming req see
system.mem_ctrls.rdQLenPdf::6                       0                       # What read queue length does an incoming req see
system.mem_ctrls.rdQLenPdf::7                       0                       # What read queue length does an incoming req see
system.mem_ctrls.rdQLenPdf::8                       0                       # What read queue length does an incoming req see
system.mem_ctrls.rdQLenPdf::9                       0                       # What read queue length does an incoming req see
system.mem_ctrls.rdQLenPdf::10                      0                       # What read queue length does an incoming req see
system.mem_ctrls.rdQLenPdf::11                      0                       # What read queue length does an incoming req see
system.mem_ctrls.rdQLenPdf::12                      0                       # What read queue length does an incoming req see
system.mem_ctrls.rdQLenPdf::13                      0                       # What read queue length does an incoming req see
system.mem_ctrls.rdQLenPdf::14                      0                       # What read queue length does an incoming req see
system.mem_ctrls.rdQLenPdf::15                      0                       # What read queue length does an incoming req see
system.mem_ctrls.rdQLenPdf::16                      0                       # What read queue length does an incoming req see
system.mem_ctrls.rdQLenPdf::17                      0                       # What read queue length does an incoming req see
system.mem_ctrls.rdQLenPdf::18                      0                       # What read queue length does an incoming req see
system.mem_ctrls.rdQLenPdf::19                      0                       # What read queue length does an incoming req see
system.mem_ctrls.rdQLenPdf::20                      0                       # What read queue length does an incoming req see
system.mem_ctrls.rdQLenPdf::21                      0                       # What read queue length does an incoming req see
system.mem_ctrls.rdQLenPdf::22                      0                       # What read queue length does an incoming req see
system.mem_ctrls.rdQLenPdf::23                      0                       # What read queue length does an incoming req see
system.mem_ctrls.rdQLenPdf::24                      0                       # What read queue length does an incoming req see
system.mem_ctrls.rdQLenPdf::25                      0                       # What read queue length does an incoming req see
system.mem_ctrls.rdQLenPdf::26                      0                       # What read queue length does an incoming req see
system.mem_ctrls.rdQLenPdf::27                      0                       # What read queue length does an incoming req see
system.mem_ctrls.rdQLenPdf::28                      0                       # What read queue length does an incoming req see
system.mem_ctrls.rdQLenPdf::29                      0                       # What read queue length does an incoming req see
system.mem_ctrls.rdQLenPdf::30                      0                       # What read queue length does an incoming req see
system.mem_ctrls.rdQLenPdf::31                      0                       # What read queue length does an incoming req see
system.mem_ctrls.wrQLenPdf::0                       0                       # What write queue length does an incoming req see
system.mem_ctrls.wrQLenPdf::1                       0                       # What write queue length does an incoming req see
system.mem_ctrls.wrQLenPdf::2                       0                       # What write queue length does an incoming req see
system.mem_ctrls.wrQLenPdf::3                       0                       # What write queue length does an incoming req see
system.mem_ctrls.wrQLenPdf::4                       0                       # What write queue length does an incoming req see
system.mem_ctrls.wrQLenPdf::5                       0                       # What write queue length does an incoming req see
system.mem_ctrls.wrQLenPdf::6                       0                       # What write queue length does an incoming req see
system.mem_ctrls.wrQLenPdf::7                       0                       # What write queue length does an incoming req see
system.mem_ctrls.wrQLenPdf::8                       0                       # What write queue length does an incoming req see
system.mem_ctrls.wrQLenPdf::9                       0                       # What write queue length does an incoming req see
system.mem_ctrls.wrQLenPdf::10                      0                       # What write queue length does an incoming req see
system.mem_ctrls.wrQLenPdf::11                      0                       # What write queue length does an incoming req see
system.mem_ctrls.wrQLenPdf::12                      0                       # What write queue length does an incoming req see
system.mem_ctrls.wrQLenPdf::13                      0                       # What write queue length does an incoming req see
system.mem_ctrls.wrQLenPdf::14                      0                       # What write queue length does an incoming req see
system.mem_ctrls.wrQLenPdf::15                      0                       # What write queue length does an incoming req see
system.mem_ctrls.wrQLenPdf::16                      0                       # What write queue length does an incoming req see
system.mem_ctrls.wrQLenPdf::17                      0                       # What write queue length does an incoming req see
system.mem_ctrls.wrQLenPdf::18                      0                       # What write queue length does an incoming req see
system.mem_ctrls.wrQLenPdf::19                      0                       # What write queue length does an incoming req see
system.mem_ctrls.wrQLenPdf::20                      0                       # What write queue length does an incoming req see
system.mem_ctrls.wrQLenPdf::21                      0                       # What write queue length does an incoming req see
system.mem_ctrls.wrQLenPdf::22                      0                       # What write queue length does an incoming req see
system.mem_ctrls.wrQLenPdf::23                      0                       # What write queue length does an incoming req see
system.mem_ctrls.wrQLenPdf::24                      0                       # What write queue length does an incoming req see
system.mem_ctrls.wrQLenPdf::25                      0                       # What write queue length does an incoming req see
system.mem_ctrls.wrQLenPdf::26                      0                       # What write queue length does an incoming req see
system.mem_ctrls.wrQLenPdf::27                      0                       # What write queue length does an incoming req see
system.mem_ctrls.wrQLenPdf::28                      0                       # What write queue length does an incoming req see
system.mem_ctrls.wrQLenPdf::29                      0                       # What write queue length does an incoming req see
system.mem_ctrls.wrQLenPdf::30                      0                       # What write queue length does an incoming req see
system.mem_ctrls.wrQLenPdf::31                      0                       # What write queue length does an incoming req see
system.mem_ctrls.wrQLenPdf::32                      0                       # What write queue length does an incoming req see
system.mem_ctrls.wrQLenPdf::33                      0                       # What write queue length does an incoming req see
system.mem_ctrls.wrQLenPdf::34                      0                       # What write queue length does an incoming req see
system.mem_ctrls.wrQLenPdf::35                      0                       # What write queue length does an incoming req see
system.mem_ctrls.wrQLenPdf::36                      0                       # What write queue length does an incoming req see
system.mem_ctrls.wrQLenPdf::37                      0                       # What write queue length does an incoming req see
system.mem_ctrls.wrQLenPdf::38                      0                       # What write queue length does an incoming req see
system.mem_ctrls.wrQLenPdf::39                      0                       # What write queue length does an incoming req see
system.mem_ctrls.wrQLenPdf::40                      0                       # What write queue length does an incoming req see
system.mem_ctrls.wrQLenPdf::41                      0                       # What write queue length does an incoming req see
system.mem_ctrls.wrQLenPdf::42                      0                       # What write queue length does an incoming req see
system.mem_ctrls.wrQLenPdf::43                      0                       # What write queue length does an incoming req see
system.mem_ctrls.wrQLenPdf::44                      0                       # What write queue length does an incoming req see
system.mem_ctrls.wrQLenPdf::45                      0                       # What write queue length does an incoming req see
system.mem_ctrls.wrQLenPdf::46                      0                       # What write queue length does an incoming req see
system.mem_ctrls.wrQLenPdf::47                      0                       # What write queue length does an incoming req see
system.mem_ctrls.wrQLenPdf::48                      0                       # What write queue length does an incoming req see
system.mem_ctrls.wrQLenPdf::49                      0                       # What write queue length does an incoming req see
system.mem_ctrls.wrQLenPdf::50                      0                       # What write queue length does an incoming req see
system.mem_ctrls.wrQLenPdf::51                      0                       # What write queue length does an incoming req see
system.mem_ctrls.wrQLenPdf::52                      0                       # What write queue length does an incoming req see
system.mem_ctrls.wrQLenPdf::53                      0                       # What write queue length does an incoming req see
system.mem_ctrls.wrQLenPdf::54                      0                       # What write queue length does an incoming req see
system.mem_ctrls.wrQLenPdf::55                      0                       # What write queue length does an incoming req see
system.mem_ctrls.wrQLenPdf::56                      0                       # What write queue length does an incoming req see
system.mem_ctrls.wrQLenPdf::57                      0                       # What write queue length does an incoming req see
system.mem_ctrls.wrQLenPdf::58                      0                       # What write queue length does an incoming req see
system.mem_ctrls.wrQLenPdf::59                      0                       # What write queue length does an incoming req see
system.mem_ctrls.wrQLenPdf::60                      0                       # What write queue length does an incoming req see
system.mem_ctrls.wrQLenPdf::61                      0                       # What write queue length does an incoming req see
system.mem_ctrls.wrQLenPdf::62                      0                       # What write queue length does an incoming req see
system.mem_ctrls.wrQLenPdf::63                      0                       # What write queue length does an incoming req see
system.mem_ctrls.bytesPerActivate::samples        24755                       # Bytes accessed per row activation
system.mem_ctrls.bytesPerActivate::mean    267.866694                       # Bytes accessed per row activation
system.mem_ctrls.bytesPerActivate::gmean   248.204305                       # Bytes accessed per row activation
system.mem_ctrls.bytesPerActivate::stdev   116.879763                       # Bytes accessed per row activation
system.mem_ctrls.bytesPerActivate::0-127         1466      5.92%      5.92% # Bytes accessed per row activation
system.mem_ctrls.bytesPerActivate::128-255          993      4.01%      9.93% # Bytes accessed per row activation
system.mem_ctrls.bytesPerActivate::256-383        21477     86.76%     96.69% # Bytes accessed per row activation
system.mem_ctrls.bytesPerActivate::384-511          252      1.02%     97.71% # Bytes accessed per row activation
system.mem_ctrls.bytesPerActivate::512-639           91      0.37%     98.08% # Bytes accessed per row activation
system.mem_ctrls.bytesPerActivate::640-767           26      0.11%     98.18% # Bytes accessed per row activation
system.mem_ctrls.bytesPerActivate::768-895           42      0.17%     98.35% # Bytes accessed per row activation
system.mem_ctrls.bytesPerActivate::896-1023           71      0.29%     98.64% # Bytes accessed per row activation
system.mem_ctrls.bytesPerActivate::1024-1151          337      1.36%    100.00% # Bytes accessed per row activation
system.mem_ctrls.bytesPerActivate::total        24755                       # Bytes accessed per row activation
system.mem_ctrls.totQLat                   1023611997                       # Total ticks spent queuing
system.mem_ctrls.totMemAccLat              2967011997                       # Total ticks spent from burst creation until serviced by the DRAM
system.mem_ctrls.totBusLat                  518240000                       # Total ticks spent in databus transfers
system.mem_ctrls.avgQLat                      9875.85                       # Average queueing delay per DRAM burst
system.mem_ctrls.avgBusLat                    5000.00                       # Average bus latency per DRAM burst
system.mem_ctrls.avgMemAccLat                28625.85                       # Average memory access latency per DRAM burst
system.mem_ctrls.avgRdBW                        24.82                       # Average DRAM read bandwidth in MiByte/s
system.mem_ctrls.avgWrBW                         0.00                       # Average achieved write bandwidth in MiByte/s
system.mem_ctrls.avgRdBWSys                     24.82                       # Average system read bandwidth in MiByte/s
system.mem_ctrls.avgWrBWSys                      0.00                       # Average system write bandwidth in MiByte/s
system.mem_ctrls.peakBW                      12800.00                       # Theoretical peak bandwidth in MiByte/s
system.mem_ctrls.busUtil                         0.19                       # Data bus utilization in percentage
system.mem_ctrls.busUtilRead                     0.19                       # Data bus utilization in percentage for reads
system.mem_ctrls.busUtilWrite                    0.00                       # Data bus utilization in percentage for writes
system.mem_ctrls.avgRdQLen                       1.01                       # Average read queue length when enqueuing
system.mem_ctrls.avgWrQLen                       0.00                       # Average write queue length when enqueuing
system.mem_ctrls.readRowHits                    78883                       # Number of row buffer hits during reads
system.mem_ctrls.writeRowHits                       0                       # Number of row buffer hits during writes
system.mem_ctrls.readRowHitRate                 76.11                       # Row buffer hit rate for reads
system.mem_ctrls.writeRowHitRate                  nan                       # Row buffer hit rate for writes
system.mem_ctrls.avgGap                    2578606.13                       # Average gap between requests
system.mem_ctrls.pageHitRate                    76.11                       # Row buffer hit rate, read and write combined
system.mem_ctrls_0.actEnergy                 94348800                       # Energy for activate commands per rank (pJ)
system.mem_ctrls_0.preEnergy                 51480000                       # Energy for precharge commands per rank (pJ)
system.mem_ctrls_0.readEnergy               401294400                       # Energy for read commands per rank (pJ)
system.mem_ctrls_0.writeEnergy                      0                       # Energy for write commands per rank (pJ)
system.mem_ctrls_0.refreshEnergy          17456322000                       # Energy for refresh commands per rank (pJ)
system.mem_ctrls_0.actBackEnergy          57730694400                       # Energy for active background per rank (pJ)
system.mem_ctrls_0.preBackEnergy         109717014750                       # Energy for precharge background per rank (pJ)
system.mem_ctrls_0.totalEnergy           185451154350                       # Total energy per rank (pJ)
system.mem_ctrls_0.averagePower            693.889361                       # Core power per rank (mW)
system.mem_ctrls_0.memoryStateTime::IDLE 182227318250                       # Time in different power states
system.mem_ctrls_0.memoryStateTime::REF    8924500000                       # Time in different power states
system.mem_ctrls_0.memoryStateTime::PRE_PDN            0                       # Time in different power states
system.mem_ctrls_0.memoryStateTime::ACT   76111486750                       # Time in different power states
system.mem_ctrls_0.memoryStateTime::ACT_PDN            0                       # Time in different power states
system.mem_ctrls_1.actEnergy                 92776320                       # Energy for activate commands per rank (pJ)
system.mem_ctrls_1.preEnergy                 50622000                       # Energy for precharge commands per rank (pJ)
system.mem_ctrls_1.readEnergy               406832400                       # Energy for read commands per rank (pJ)
system.mem_ctrls_1.writeEnergy                      0                       # Energy for write commands per rank (pJ)
system.mem_ctrls_1.refreshEnergy          17456322000                       # Energy for refresh commands per rank (pJ)
system.mem_ctrls_1.actBackEnergy          58860912060                       # Energy for active background per rank (pJ)
system.mem_ctrls_1.preBackEnergy         108725587500                       # Energy for precharge background per rank (pJ)
system.mem_ctrls_1.totalEnergy           185593052280                       # Total energy per rank (pJ)
system.mem_ctrls_1.averagePower            694.420326                       # Core power per rank (mW)
system.mem_ctrls_1.memoryStateTime::IDLE 180574268000                       # Time in different power states
system.mem_ctrls_1.memoryStateTime::REF    8924500000                       # Time in different power states
system.mem_ctrls_1.memoryStateTime::PRE_PDN            0                       # Time in different power states
system.mem_ctrls_1.memoryStateTime::ACT   77766235000                       # Time in different power states
system.mem_ctrls_1.memoryStateTime::ACT_PDN            0                       # Time in different power states
system.cpu_voltage_domain.voltage                   1                       # Voltage in Volts
system.cpu_clk_domain.clock                       500                       # Clock period in ticks
system.cpu0.apic_clk_domain.clock                8000                       # Clock period in ticks
system.cpu0.workload.num_syscalls                 220                       # Number of system calls
system.cpu0.numCycles                       534534859                       # number of cpu cycles simulated
system.cpu0.numWorkItemsStarted                     0                       # number of work items this cpu started
system.cpu0.numWorkItemsCompleted                   0                       # number of work items this cpu completed
system.cpu0.committedInsts                  149272040                       # Number of instructions committed
system.cpu0.committedOps                    391865286                       # Number of ops (including micro ops) committed
system.cpu0.num_int_alu_accesses            371800175                       # Number of integer alu accesses
system.cpu0.num_fp_alu_accesses               9494870                       # Number of float alu accesses
system.cpu0.num_func_calls                   12283488                       # number of times a function call or return occured
system.cpu0.num_conditional_control_insts     31527706                       # number of instructions that are conditional controls
system.cpu0.num_int_insts                   371800175                       # number of integer instructions
system.cpu0.num_fp_insts                      9494870                       # number of float instructions
system.cpu0.num_int_register_reads          787721184                       # number of times the integer registers were read
system.cpu0.num_int_register_writes         362266597                       # number of times the integer registers were written
system.cpu0.num_fp_register_reads            15205168                       # number of times the floating registers were read
system.cpu0.num_fp_register_writes            7569686                       # number of times the floating registers were written
system.cpu0.num_cc_register_reads           311413248                       # number of times the CC registers were read
system.cpu0.num_cc_register_writes          116508513                       # number of times the CC registers were written
system.cpu0.num_mem_refs                     67659341                       # number of memory refs
system.cpu0.num_load_insts                   42390983                       # Number of load instructions
system.cpu0.num_store_insts                  25268358                       # Number of store instructions
system.cpu0.num_idle_cycles                  0.002000                       # Number of idle cycles
system.cpu0.num_busy_cycles              534534858.998000                       # Number of busy cycles
system.cpu0.not_idle_fraction                1.000000                       # Percentage of non-idle cycles
system.cpu0.idle_fraction                    0.000000                       # Percentage of idle cycles
system.cpu0.Branches                         49889368                       # Number of branches fetched
system.cpu0.op_class::No_OpClass              6170704      1.57%      1.57% # Class of executed instruction
system.cpu0.op_class::IntAlu                279808216     71.40%     72.98% # Class of executed instruction
system.cpu0.op_class::IntMult                     697      0.00%     72.98% # Class of executed instruction
system.cpu0.op_class::IntDiv                 30657647      7.82%     80.80% # Class of executed instruction
system.cpu0.op_class::FloatAdd                7568681      1.93%     82.73% # Class of executed instruction
system.cpu0.op_class::FloatCmp                      0      0.00%     82.73% # Class of executed instruction
system.cpu0.op_class::FloatCvt                      0      0.00%     82.73% # Class of executed instruction
system.cpu0.op_class::FloatMult                     0      0.00%     82.73% # Class of executed instruction
system.cpu0.op_class::FloatDiv                      0      0.00%     82.73% # Class of executed instruction
system.cpu0.op_class::FloatSqrt                     0      0.00%     82.73% # Class of executed instruction
system.cpu0.op_class::SimdAdd                       0      0.00%     82.73% # Class of executed instruction
system.cpu0.op_class::SimdAddAcc                    0      0.00%     82.73% # Class of executed instruction
system.cpu0.op_class::SimdAlu                       0      0.00%     82.73% # Class of executed instruction
system.cpu0.op_class::SimdCmp                       0      0.00%     82.73% # Class of executed instruction
system.cpu0.op_class::SimdCvt                       0      0.00%     82.73% # Class of executed instruction
system.cpu0.op_class::SimdMisc                      0      0.00%     82.73% # Class of executed instruction
system.cpu0.op_class::SimdMult                      0      0.00%     82.73% # Class of executed instruction
system.cpu0.op_class::SimdMultAcc                   0      0.00%     82.73% # Class of executed instruction
system.cpu0.op_class::SimdShift                     0      0.00%     82.73% # Class of executed instruction
system.cpu0.op_class::SimdShiftAcc                  0      0.00%     82.73% # Class of executed instruction
system.cpu0.op_class::SimdSqrt                      0      0.00%     82.73% # Class of executed instruction
system.cpu0.op_class::SimdFloatAdd                  0      0.00%     82.73% # Class of executed instruction
system.cpu0.op_class::SimdFloatAlu                  0      0.00%     82.73% # Class of executed instruction
system.cpu0.op_class::SimdFloatCmp                  0      0.00%     82.73% # Class of executed instruction
system.cpu0.op_class::SimdFloatCvt                  0      0.00%     82.73% # Class of executed instruction
system.cpu0.op_class::SimdFloatDiv                  0      0.00%     82.73% # Class of executed instruction
system.cpu0.op_class::SimdFloatMisc                 0      0.00%     82.73% # Class of executed instruction
system.cpu0.op_class::SimdFloatMult                 0      0.00%     82.73% # Class of executed instruction
system.cpu0.op_class::SimdFloatMultAcc              0      0.00%     82.73% # Class of executed instruction
system.cpu0.op_class::SimdFloatSqrt                 0      0.00%     82.73% # Class of executed instruction
system.cpu0.op_class::MemRead                42390983     10.82%     93.55% # Class of executed instruction
system.cpu0.op_class::MemWrite               25268358      6.45%    100.00% # Class of executed instruction
system.cpu0.op_class::IprAccess                     0      0.00%    100.00% # Class of executed instruction
system.cpu0.op_class::InstPrefetch                  0      0.00%    100.00% # Class of executed instruction
system.cpu0.op_class::total                 391865286                       # Class of executed instruction
system.cpu1.apic_clk_domain.clock                8000                       # Clock period in ticks
system.cpu1.numCycles                       534350027                       # number of cpu cycles simulated
system.cpu1.numWorkItemsStarted                     0                       # number of work items this cpu started
system.cpu1.numWorkItemsCompleted                   0                       # number of work items this cpu completed
system.cpu1.committedInsts                   17677661                       # Number of instructions committed
system.cpu1.committedOps                     34942907                       # Number of ops (including micro ops) committed
system.cpu1.num_int_alu_accesses             27490597                       # Number of integer alu accesses
system.cpu1.num_fp_alu_accesses              17954755                       # Number of float alu accesses
system.cpu1.num_func_calls                     123813                       # number of times a function call or return occured
system.cpu1.num_conditional_control_insts      1928285                       # number of instructions that are conditional controls
system.cpu1.num_int_insts                    27490597                       # number of integer instructions
system.cpu1.num_fp_insts                     17954755                       # number of float instructions
system.cpu1.num_int_register_reads           52576255                       # number of times the integer registers were read
system.cpu1.num_int_register_writes          14986532                       # number of times the integer registers were written
system.cpu1.num_fp_register_reads            25110571                       # number of times the floating registers were read
system.cpu1.num_fp_register_writes           14781082                       # number of times the floating registers were written
system.cpu1.num_cc_register_reads            11631673                       # number of times the CC registers were read
system.cpu1.num_cc_register_writes           11600358                       # number of times the CC registers were written
system.cpu1.num_mem_refs                     10797300                       # number of memory refs
system.cpu1.num_load_insts                    7561427                       # Number of load instructions
system.cpu1.num_store_insts                   3235873                       # Number of store instructions
system.cpu1.num_idle_cycles              457337185.788999                       # Number of idle cycles
system.cpu1.num_busy_cycles              77012841.211001                       # Number of busy cycles
system.cpu1.not_idle_fraction                0.144124                       # Percentage of non-idle cycles
system.cpu1.idle_fraction                    0.855876                       # Percentage of idle cycles
system.cpu1.Branches                          2118670                       # Number of branches fetched
system.cpu1.op_class::No_OpClass                    8      0.00%      0.00% # Class of executed instruction
system.cpu1.op_class::IntAlu                 16513989     47.26%     47.26% # Class of executed instruction
system.cpu1.op_class::IntMult                  179233      0.51%     47.77% # Class of executed instruction
system.cpu1.op_class::IntDiv                       56      0.00%     47.77% # Class of executed instruction
system.cpu1.op_class::FloatAdd                7452321     21.33%     69.10% # Class of executed instruction
system.cpu1.op_class::FloatCmp                      0      0.00%     69.10% # Class of executed instruction
system.cpu1.op_class::FloatCvt                      0      0.00%     69.10% # Class of executed instruction
system.cpu1.op_class::FloatMult                     0      0.00%     69.10% # Class of executed instruction
system.cpu1.op_class::FloatDiv                      0      0.00%     69.10% # Class of executed instruction
system.cpu1.op_class::FloatSqrt                     0      0.00%     69.10% # Class of executed instruction
system.cpu1.op_class::SimdAdd                       0      0.00%     69.10% # Class of executed instruction
system.cpu1.op_class::SimdAddAcc                    0      0.00%     69.10% # Class of executed instruction
system.cpu1.op_class::SimdAlu                       0      0.00%     69.10% # Class of executed instruction
system.cpu1.op_class::SimdCmp                       0      0.00%     69.10% # Class of executed instruction
system.cpu1.op_class::SimdCvt                       0      0.00%     69.10% # Class of executed instruction
system.cpu1.op_class::SimdMisc                      0      0.00%     69.10% # Class of executed instruction
system.cpu1.op_class::SimdMult                      0      0.00%     69.10% # Class of executed instruction
system.cpu1.op_class::SimdMultAcc                   0      0.00%     69.10% # Class of executed instruction
system.cpu1.op_class::SimdShift                     0      0.00%     69.10% # Class of executed instruction
system.cpu1.op_class::SimdShiftAcc                  0      0.00%     69.10% # Class of executed instruction
system.cpu1.op_class::SimdSqrt                      0      0.00%     69.10% # Class of executed instruction
system.cpu1.op_class::SimdFloatAdd                  0      0.00%     69.10% # Class of executed instruction
system.cpu1.op_class::SimdFloatAlu                  0      0.00%     69.10% # Class of executed instruction
system.cpu1.op_class::SimdFloatCmp                  0      0.00%     69.10% # Class of executed instruction
system.cpu1.op_class::SimdFloatCvt                  0      0.00%     69.10% # Class of executed instruction
system.cpu1.op_class::SimdFloatDiv                  0      0.00%     69.10% # Class of executed instruction
system.cpu1.op_class::SimdFloatMisc                 0      0.00%     69.10% # Class of executed instruction
system.cpu1.op_class::SimdFloatMult                 0      0.00%     69.10% # Class of executed instruction
system.cpu1.op_class::SimdFloatMultAcc              0      0.00%     69.10% # Class of executed instruction
system.cpu1.op_class::SimdFloatSqrt                 0      0.00%     69.10% # Class of executed instruction
system.cpu1.op_class::MemRead                 7561427     21.64%     90.74% # Class of executed instruction
system.cpu1.op_class::MemWrite                3235873      9.26%    100.00% # Class of executed instruction
system.cpu1.op_class::IprAccess                     0      0.00%    100.00% # Class of executed instruction
system.cpu1.op_class::InstPrefetch                  0      0.00%    100.00% # Class of executed instruction
system.cpu1.op_class::total                  34942907                       # Class of executed instruction
system.cpu2.apic_clk_domain.clock                8000                       # Clock period in ticks
system.cpu2.numCycles                       515802547                       # number of cpu cycles simulated
system.cpu2.numWorkItemsStarted                     0                       # number of work items this cpu started
system.cpu2.numWorkItemsCompleted                   0                       # number of work items this cpu completed
system.cpu2.committedInsts                   13155106                       # Number of instructions committed
system.cpu2.committedOps                     26101665                       # Number of ops (including micro ops) committed
system.cpu2.num_int_alu_accesses             20236336                       # Number of integer alu accesses
system.cpu2.num_fp_alu_accesses              13014890                       # Number of float alu accesses
system.cpu2.num_func_calls                      99033                       # number of times a function call or return occured
system.cpu2.num_conditional_control_insts      1475859                       # number of instructions that are conditional controls
system.cpu2.num_int_insts                    20236336                       # number of integer instructions
system.cpu2.num_fp_insts                     13014890                       # number of float instructions
system.cpu2.num_int_register_reads           37793346                       # number of times the integer registers were read
system.cpu2.num_int_register_writes          11553164                       # number of times the integer registers were written
system.cpu2.num_fp_register_reads            18806063                       # number of times the floating registers were read
system.cpu2.num_fp_register_writes           11409521                       # number of times the floating registers were written
system.cpu2.num_cc_register_reads             8904729                       # number of times the CC registers were read
system.cpu2.num_cc_register_writes            8879653                       # number of times the CC registers were written
system.cpu2.num_mem_refs                      7394705                       # number of memory refs
system.cpu2.num_load_insts                    5739543                       # Number of load instructions
system.cpu2.num_store_insts                   1655162                       # Number of store instructions
system.cpu2.num_idle_cycles              462313279.488713                       # Number of idle cycles
system.cpu2.num_busy_cycles              53489267.511287                       # Number of busy cycles
system.cpu2.not_idle_fraction                0.103701                       # Percentage of non-idle cycles
system.cpu2.idle_fraction                    0.896299                       # Percentage of idle cycles
system.cpu2.Branches                          1629051                       # Number of branches fetched
system.cpu2.op_class::No_OpClass                    7      0.00%      0.00% # Class of executed instruction
system.cpu2.op_class::IntAlu                 12696363     48.64%     48.64% # Class of executed instruction
system.cpu2.op_class::IntMult                  145208      0.56%     49.20% # Class of executed instruction
system.cpu2.op_class::IntDiv                       49      0.00%     49.20% # Class of executed instruction
system.cpu2.op_class::FloatAdd                5865333     22.47%     71.67% # Class of executed instruction
system.cpu2.op_class::FloatCmp                      0      0.00%     71.67% # Class of executed instruction
system.cpu2.op_class::FloatCvt                      0      0.00%     71.67% # Class of executed instruction
system.cpu2.op_class::FloatMult                     0      0.00%     71.67% # Class of executed instruction
system.cpu2.op_class::FloatDiv                      0      0.00%     71.67% # Class of executed instruction
system.cpu2.op_class::FloatSqrt                     0      0.00%     71.67% # Class of executed instruction
system.cpu2.op_class::SimdAdd                       0      0.00%     71.67% # Class of executed instruction
system.cpu2.op_class::SimdAddAcc                    0      0.00%     71.67% # Class of executed instruction
system.cpu2.op_class::SimdAlu                       0      0.00%     71.67% # Class of executed instruction
system.cpu2.op_class::SimdCmp                       0      0.00%     71.67% # Class of executed instruction
system.cpu2.op_class::SimdCvt                       0      0.00%     71.67% # Class of executed instruction
system.cpu2.op_class::SimdMisc                      0      0.00%     71.67% # Class of executed instruction
system.cpu2.op_class::SimdMult                      0      0.00%     71.67% # Class of executed instruction
system.cpu2.op_class::SimdMultAcc                   0      0.00%     71.67% # Class of executed instruction
system.cpu2.op_class::SimdShift                     0      0.00%     71.67% # Class of executed instruction
system.cpu2.op_class::SimdShiftAcc                  0      0.00%     71.67% # Class of executed instruction
system.cpu2.op_class::SimdSqrt                      0      0.00%     71.67% # Class of executed instruction
system.cpu2.op_class::SimdFloatAdd                  0      0.00%     71.67% # Class of executed instruction
system.cpu2.op_class::SimdFloatAlu                  0      0.00%     71.67% # Class of executed instruction
system.cpu2.op_class::SimdFloatCmp                  0      0.00%     71.67% # Class of executed instruction
system.cpu2.op_class::SimdFloatCvt                  0      0.00%     71.67% # Class of executed instruction
system.cpu2.op_class::SimdFloatDiv                  0      0.00%     71.67% # Class of executed instruction
system.cpu2.op_class::SimdFloatMisc                 0      0.00%     71.67% # Class of executed instruction
system.cpu2.op_class::SimdFloatMult                 0      0.00%     71.67% # Class of executed instruction
system.cpu2.op_class::SimdFloatMultAcc              0      0.00%     71.67% # Class of executed instruction
system.cpu2.op_class::SimdFloatSqrt                 0      0.00%     71.67% # Class of executed instruction
system.cpu2.op_class::MemRead                 5739543     21.99%     93.66% # Class of executed instruction
system.cpu2.op_class::MemWrite                1655162      6.34%    100.00% # Class of executed instruction
system.cpu2.op_class::IprAccess                     0      0.00%    100.00% # Class of executed instruction
system.cpu2.op_class::InstPrefetch                  0      0.00%    100.00% # Class of executed instruction
system.cpu2.op_class::total                  26101665                       # Class of executed instruction
system.ruby.clk_domain.clock                      500                       # Clock period in ticks
system.ruby.delayHist::bucket_size                  4                       # delay histogram for all message
system.ruby.delayHist::max_bucket                  39                       # delay histogram for all message
system.ruby.delayHist::samples                4163651                       # delay histogram for all message
system.ruby.delayHist::mean                  0.687345                       # delay histogram for all message
system.ruby.delayHist::stdev                 2.271483                       # delay histogram for all message
system.ruby.delayHist                    |     3808150     91.46%     91.46% |       15222      0.37%     91.83% |      336901      8.09%     99.92% |        1182      0.03%     99.95% |        1373      0.03%     99.98% |         444      0.01%     99.99% |         378      0.01%    100.00% |           1      0.00%    100.00% |           0      0.00%    100.00% |           0      0.00%    100.00% # delay histogram for all message
system.ruby.delayHist::total                  4163651                       # delay histogram for all message
system.ruby.outstanding_req_hist::bucket_size            1                      
system.ruby.outstanding_req_hist::max_bucket            9                      
system.ruby.outstanding_req_hist::samples    318936288                      
system.ruby.outstanding_req_hist::mean       1.000480                      
system.ruby.outstanding_req_hist::gmean      1.000333                      
system.ruby.outstanding_req_hist::stdev      0.021897                      
system.ruby.outstanding_req_hist         |           0      0.00%      0.00% |   318783286     99.95%     99.95% |      153002      0.05%    100.00% |           0      0.00%    100.00% |           0      0.00%    100.00% |           0      0.00%    100.00% |           0      0.00%    100.00% |           0      0.00%    100.00% |           0      0.00%    100.00% |           0      0.00%    100.00%
system.ruby.outstanding_req_hist::total     318936288                      
system.ruby.latency_hist::bucket_size             128                      
system.ruby.latency_hist::max_bucket             1279                      
system.ruby.latency_hist::samples           318936288                      
system.ruby.latency_hist::mean               1.092004                      
system.ruby.latency_hist::gmean              1.009392                      
system.ruby.latency_hist::stdev              3.038909                      
system.ruby.latency_hist                 |   318911518     99.99%     99.99% |       21669      0.01%    100.00% |          77      0.00%    100.00% |         282      0.00%    100.00% |        2229      0.00%    100.00% |         513      0.00%    100.00% |           0      0.00%    100.00% |           0      0.00%    100.00% |           0      0.00%    100.00% |           0      0.00%    100.00%
system.ruby.latency_hist::total             318936288                      
system.ruby.hit_latency_hist::bucket_size          128                      
system.ruby.hit_latency_hist::max_bucket         1279                      
system.ruby.hit_latency_hist::samples       318936288                      
system.ruby.hit_latency_hist::mean           1.092004                      
system.ruby.hit_latency_hist::gmean          1.009392                      
system.ruby.hit_latency_hist::stdev          3.038909                      
system.ruby.hit_latency_hist             |   318911518     99.99%     99.99% |       21669      0.01%    100.00% |          77      0.00%    100.00% |         282      0.00%    100.00% |        2229      0.00%    100.00% |         513      0.00%    100.00% |           0      0.00%    100.00% |           0      0.00%    100.00% |           0      0.00%    100.00% |           0      0.00%    100.00%
system.ruby.hit_latency_hist::total         318936288                      
system.ruby.l0_cntrl0.Dcache.demand_hits     67526494                       # Number of cache demand hits
system.ruby.l0_cntrl0.Dcache.demand_misses       132897                       # Number of cache demand misses
system.ruby.l0_cntrl0.Dcache.demand_accesses     67659391                       # Number of cache demand accesses
system.ruby.l0_cntrl0.Icache.demand_hits    192643235                       # Number of cache demand hits
system.ruby.l0_cntrl0.Icache.demand_misses         2745                       # Number of cache demand misses
system.ruby.l0_cntrl0.Icache.demand_accesses    192645980                       # Number of cache demand accesses
system.ruby.l0_cntrl0.Zcache.demand_hits            0                       # Number of cache demand hits
system.ruby.l0_cntrl0.Zcache.demand_misses            0                       # Number of cache demand misses
system.ruby.l0_cntrl0.Zcache.demand_accesses            0                       # Number of cache demand accesses
system.ruby.l0_cntrl1.Dcache.demand_hits     10335662                       # Number of cache demand hits
system.ruby.l0_cntrl1.Dcache.demand_misses       548569                       # Number of cache demand misses
system.ruby.l0_cntrl1.Dcache.demand_accesses     10884231                       # Number of cache demand accesses
system.ruby.l0_cntrl1.Icache.demand_hits     23275282                       # Number of cache demand hits
system.ruby.l0_cntrl1.Icache.demand_misses          524                       # Number of cache demand misses
system.ruby.l0_cntrl1.Icache.demand_accesses     23275806                       # Number of cache demand accesses
system.ruby.l0_cntrl1.Zcache.demand_hits            0                       # Number of cache demand hits
system.ruby.l0_cntrl1.Zcache.demand_misses            0                       # Number of cache demand misses
system.ruby.l0_cntrl1.Zcache.demand_accesses            0                       # Number of cache demand accesses
system.ruby.l0_cntrl2.Dcache.demand_hits      7051908                       # Number of cache demand hits
system.ruby.l0_cntrl2.Dcache.demand_misses       408818                       # Number of cache demand misses
system.ruby.l0_cntrl2.Dcache.demand_accesses      7460726                       # Number of cache demand accesses
system.ruby.l0_cntrl2.Icache.demand_hits     17009767                       # Number of cache demand hits
system.ruby.l0_cntrl2.Icache.demand_misses          387                       # Number of cache demand misses
system.ruby.l0_cntrl2.Icache.demand_accesses     17010154                       # Number of cache demand accesses
system.ruby.l0_cntrl2.Zcache.demand_hits            0                       # Number of cache demand hits
system.ruby.l0_cntrl2.Zcache.demand_misses            0                       # Number of cache demand misses
system.ruby.l0_cntrl2.Zcache.demand_accesses            0                       # Number of cache demand accesses
system.ruby.l1_cntrl0.cache.demand_hits         10224                       # Number of cache demand hits
system.ruby.l1_cntrl0.cache.demand_misses       125418                       # Number of cache demand misses
system.ruby.l1_cntrl0.cache.demand_accesses       135642                       # Number of cache demand accesses
system.ruby.l1_cntrl1.cache.demand_hits        240702                       # Number of cache demand hits
system.ruby.l1_cntrl1.cache.demand_misses       308391                       # Number of cache demand misses
system.ruby.l1_cntrl1.cache.demand_accesses       549093                       # Number of cache demand accesses
system.ruby.l1_cntrl2.cache.demand_hits        192045                       # Number of cache demand hits
system.ruby.l1_cntrl2.cache.demand_misses       217160                       # Number of cache demand misses
system.ruby.l1_cntrl2.cache.demand_accesses       409205                       # Number of cache demand accesses
system.ruby.l2_cntrl0.L2cache.demand_hits       487861                       # Number of cache demand hits
system.ruby.l2_cntrl0.L2cache.demand_misses       163108                       # Number of cache demand misses
system.ruby.l2_cntrl0.L2cache.demand_accesses       650969                       # Number of cache demand accesses
system.ruby.memctrl_clk_domain.clock             1500                       # Clock period in ticks
system.ruby.network.routers0.percent_links_utilized            0                      
system.ruby.network.routers1.percent_links_utilized            0                      
system.ruby.network.routers2.percent_links_utilized            0                      
system.ruby.network.routers3.percent_links_utilized     0.124617                      
system.ruby.network.routers3.msg_count.Control::0       125418                      
system.ruby.network.routers3.msg_count.Request_Control::2         7951                      
system.ruby.network.routers3.msg_count.Response_Data::1       133373                      
system.ruby.network.routers3.msg_count.Response_Control::1       124619                      
system.ruby.network.routers3.msg_count.Response_Control::2       125412                      
system.ruby.network.routers3.msg_count.Writeback_Data::0       120016                      
system.ruby.network.routers3.msg_count.Writeback_Control::0          579                      
system.ruby.network.routers3.msg_bytes.Control::0      1003344                      
system.ruby.network.routers3.msg_bytes.Request_Control::2        63608                      
system.ruby.network.routers3.msg_bytes.Response_Data::1      9602856                      
system.ruby.network.routers3.msg_bytes.Response_Control::1       996952                      
system.ruby.network.routers3.msg_bytes.Response_Control::2      1003296                      
system.ruby.network.routers3.msg_bytes.Writeback_Data::0      8641152                      
system.ruby.network.routers3.msg_bytes.Writeback_Control::0         4632                      
system.ruby.network.routers4.percent_links_utilized     0.221884                      
system.ruby.network.routers4.msg_count.Control::0       308391                      
system.ruby.network.routers4.msg_count.Request_Control::2        57206                      
system.ruby.network.routers4.msg_count.Response_Data::1       335144                      
system.ruby.network.routers4.msg_count.Response_Control::1       252103                      
system.ruby.network.routers4.msg_count.Response_Control::2       218345                      
system.ruby.network.routers4.msg_count.Writeback_Data::0        91627                      
system.ruby.network.routers4.msg_count.Writeback_Control::0        67210                      
system.ruby.network.routers4.msg_bytes.Control::0      2467128                      
system.ruby.network.routers4.msg_bytes.Request_Control::2       457648                      
system.ruby.network.routers4.msg_bytes.Response_Data::1     24130368                      
system.ruby.network.routers4.msg_bytes.Response_Control::1      2016824                      
system.ruby.network.routers4.msg_bytes.Response_Control::2      1746760                      
system.ruby.network.routers4.msg_bytes.Writeback_Data::0      6597144                      
system.ruby.network.routers4.msg_bytes.Writeback_Control::0       537680                      
system.ruby.network.routers5.percent_links_utilized     0.158143                      
system.ruby.network.routers5.msg_count.Control::0       217160                      
system.ruby.network.routers5.msg_count.Request_Control::2        57341                      
system.ruby.network.routers5.msg_count.Response_Data::1       241985                      
system.ruby.network.routers5.msg_count.Response_Control::1       186111                      
system.ruby.network.routers5.msg_count.Response_Control::2       159491                      
system.ruby.network.routers5.msg_count.Writeback_Data::0        60673                      
system.ruby.network.routers5.msg_count.Writeback_Control::0        37286                      
system.ruby.network.routers5.msg_bytes.Control::0      1737280                      
system.ruby.network.routers5.msg_bytes.Request_Control::2       458728                      
system.ruby.network.routers5.msg_bytes.Response_Data::1     17422920                      
system.ruby.network.routers5.msg_bytes.Response_Control::1      1488888                      
system.ruby.network.routers5.msg_bytes.Response_Control::2      1275928                      
system.ruby.network.routers5.msg_bytes.Writeback_Data::0      4368456                      
system.ruby.network.routers5.msg_bytes.Writeback_Control::0       298288                      
system.ruby.network.routers6.percent_links_utilized     0.496996                      
system.ruby.network.routers6.msg_count.Control::0       754617                      
system.ruby.network.routers6.msg_count.Request_Control::2       118808                      
system.ruby.network.routers6.msg_count.Response_Data::1       695238                      
system.ruby.network.routers6.msg_count.Response_Control::1       436741                      
system.ruby.network.routers6.msg_count.Response_Control::2       503248                      
system.ruby.network.routers6.msg_count.Writeback_Data::0       272316                      
system.ruby.network.routers6.msg_count.Writeback_Control::0       105075                      
system.ruby.network.routers6.msg_bytes.Control::0      6036936                      
system.ruby.network.routers6.msg_bytes.Request_Control::2       950464                      
system.ruby.network.routers6.msg_bytes.Response_Data::1     50057136                      
system.ruby.network.routers6.msg_bytes.Response_Control::1      3493928                      
system.ruby.network.routers6.msg_bytes.Response_Control::2      4025984                      
system.ruby.network.routers6.msg_bytes.Writeback_Data::0     19606752                      
system.ruby.network.routers6.msg_bytes.Writeback_Control::0       840600                      
system.ruby.network.routers7.percent_links_utilized     0.048476                      
system.ruby.network.routers7.msg_count.Control::0       103648                      
system.ruby.network.routers7.msg_count.Response_Data::1       103648                      
system.ruby.network.routers7.msg_bytes.Control::0       829184                      
system.ruby.network.routers7.msg_bytes.Response_Data::1      7462656                      
system.ruby.network.routers8.percent_links_utilized     0.131286                      
system.ruby.network.routers8.msg_count.Control::0       754617                      
system.ruby.network.routers8.msg_count.Request_Control::2       122498                      
system.ruby.network.routers8.msg_count.Response_Data::1       754698                      
system.ruby.network.routers8.msg_count.Response_Control::1       499787                      
system.ruby.network.routers8.msg_count.Response_Control::2       503248                      
system.ruby.network.routers8.msg_count.Writeback_Data::0       272316                      
system.ruby.network.routers8.msg_count.Writeback_Control::0       105075                      
system.ruby.network.routers8.msg_bytes.Control::0      6036936                      
system.ruby.network.routers8.msg_bytes.Request_Control::2       979984                      
system.ruby.network.routers8.msg_bytes.Response_Data::1     54338256                      
system.ruby.network.routers8.msg_bytes.Response_Control::1      3998296                      
system.ruby.network.routers8.msg_bytes.Response_Control::2      4025984                      
system.ruby.network.routers8.msg_bytes.Writeback_Data::0     19606752                      
system.ruby.network.routers8.msg_bytes.Writeback_Control::0       840600                      
system.ruby.network.msg_count.Control         2263851                      
system.ruby.network.msg_count.Request_Control       363804                      
system.ruby.network.msg_count.Response_Data      2264086                      
system.ruby.network.msg_count.Response_Control      3009105                      
system.ruby.network.msg_count.Writeback_Data       816948                      
system.ruby.network.msg_count.Writeback_Control       315225                      
system.ruby.network.msg_byte.Control         18110808                      
system.ruby.network.msg_byte.Request_Control      2910432                      
system.ruby.network.msg_byte.Response_Data    163014192                      
system.ruby.network.msg_byte.Response_Control     24072840                      
system.ruby.network.msg_byte.Writeback_Data     58820256                      
system.ruby.network.msg_byte.Writeback_Control      2521800                      
system.ruby.network.routers0.throttle0.link_utilization            0                      
system.ruby.network.routers0.throttle1.link_utilization            0                      
system.ruby.network.routers1.throttle0.link_utilization            0                      
system.ruby.network.routers1.throttle1.link_utilization            0                      
system.ruby.network.routers2.throttle0.link_utilization            0                      
system.ruby.network.routers2.throttle1.link_utilization            0                      
system.ruby.network.routers3.throttle0.link_utilization     0.117588                      
system.ruby.network.routers3.throttle0.msg_count.Request_Control::2         7951                      
system.ruby.network.routers3.throttle0.msg_count.Response_Data::1       125387                      
system.ruby.network.routers3.throttle0.msg_count.Response_Control::1       120664                      
system.ruby.network.routers3.throttle0.msg_bytes.Request_Control::2        63608                      
system.ruby.network.routers3.throttle0.msg_bytes.Response_Data::1      9027864                      
system.ruby.network.routers3.throttle0.msg_bytes.Response_Control::1       965312                      
system.ruby.network.routers3.throttle1.link_utilization     0.131645                      
system.ruby.network.routers3.throttle1.msg_count.Control::0       125418                      
system.ruby.network.routers3.throttle1.msg_count.Response_Data::1         7986                      
system.ruby.network.routers3.throttle1.msg_count.Response_Control::1         3955                      
system.ruby.network.routers3.throttle1.msg_count.Response_Control::2       125412                      
system.ruby.network.routers3.throttle1.msg_count.Writeback_Data::0       120016                      
system.ruby.network.routers3.throttle1.msg_count.Writeback_Control::0          579                      
system.ruby.network.routers3.throttle1.msg_bytes.Control::0      1003344                      
system.ruby.network.routers3.throttle1.msg_bytes.Response_Data::1       574992                      
system.ruby.network.routers3.throttle1.msg_bytes.Response_Control::1        31640                      
system.ruby.network.routers3.throttle1.msg_bytes.Response_Control::2      1003296                      
system.ruby.network.routers3.throttle1.msg_bytes.Writeback_Data::0      8641152                      
system.ruby.network.routers3.throttle1.msg_bytes.Writeback_Control::0         4632                      
system.ruby.network.routers4.throttle0.link_utilization     0.260200                      
system.ruby.network.routers4.throttle0.msg_count.Request_Control::2        57206                      
system.ruby.network.routers4.throttle0.msg_count.Response_Data::1       277887                      
system.ruby.network.routers4.throttle0.msg_count.Response_Control::1       223531                      
system.ruby.network.routers4.throttle0.msg_bytes.Request_Control::2       457648                      
system.ruby.network.routers4.throttle0.msg_bytes.Response_Data::1     20007864                      
system.ruby.network.routers4.throttle0.msg_bytes.Response_Control::1      1788248                      
system.ruby.network.routers4.throttle1.link_utilization     0.183568                      
system.ruby.network.routers4.throttle1.msg_count.Control::0       308391                      
system.ruby.network.routers4.throttle1.msg_count.Response_Data::1        57257                      
system.ruby.network.routers4.throttle1.msg_count.Response_Control::1        28572                      
system.ruby.network.routers4.throttle1.msg_count.Response_Control::2       218345                      
system.ruby.network.routers4.throttle1.msg_count.Writeback_Data::0        91627                      
system.ruby.network.routers4.throttle1.msg_count.Writeback_Control::0        67210                      
system.ruby.network.routers4.throttle1.msg_bytes.Control::0      2467128                      
system.ruby.network.routers4.throttle1.msg_bytes.Response_Data::1      4122504                      
system.ruby.network.routers4.throttle1.msg_bytes.Response_Control::1       228576                      
system.ruby.network.routers4.throttle1.msg_bytes.Response_Control::2      1746760                      
system.ruby.network.routers4.throttle1.msg_bytes.Writeback_Data::0      6597144                      
system.ruby.network.routers4.throttle1.msg_bytes.Writeback_Control::0       537680                      
system.ruby.network.routers5.throttle0.link_utilization     0.178476                      
system.ruby.network.routers5.throttle0.msg_count.Request_Control::2        57341                      
system.ruby.network.routers5.throttle0.msg_count.Response_Data::1       188345                      
system.ruby.network.routers5.throttle0.msg_count.Response_Control::1       155592                      
system.ruby.network.routers5.throttle0.msg_bytes.Request_Control::2       458728                      
system.ruby.network.routers5.throttle0.msg_bytes.Response_Data::1     13560840                      
system.ruby.network.routers5.throttle0.msg_bytes.Response_Control::1      1244736                      
system.ruby.network.routers5.throttle1.link_utilization     0.137809                      
system.ruby.network.routers5.throttle1.msg_count.Control::0       217160                      
system.ruby.network.routers5.throttle1.msg_count.Response_Data::1        53640                      
system.ruby.network.routers5.throttle1.msg_count.Response_Control::1        30519                      
system.ruby.network.routers5.throttle1.msg_count.Response_Control::2       159491                      
system.ruby.network.routers5.throttle1.msg_count.Writeback_Data::0        60673                      
system.ruby.network.routers5.throttle1.msg_count.Writeback_Control::0        37286                      
system.ruby.network.routers5.throttle1.msg_bytes.Control::0      1737280                      
system.ruby.network.routers5.throttle1.msg_bytes.Response_Data::1      3862080                      
system.ruby.network.routers5.throttle1.msg_bytes.Response_Control::1       244152                      
system.ruby.network.routers5.throttle1.msg_bytes.Response_Control::2      1275928                      
system.ruby.network.routers5.throttle1.msg_bytes.Writeback_Data::0      4368456                      
system.ruby.network.routers5.throttle1.msg_bytes.Writeback_Control::0       298288                      
system.ruby.network.routers6.throttle0.link_utilization     0.484332                      
system.ruby.network.routers6.throttle0.msg_count.Control::0       650969                      
system.ruby.network.routers6.throttle0.msg_count.Response_Data::1       163079                      
system.ruby.network.routers6.throttle0.msg_count.Response_Control::2       503248                      
system.ruby.network.routers6.throttle0.msg_count.Writeback_Data::0       272316                      
system.ruby.network.routers6.throttle0.msg_count.Writeback_Control::0       105075                      
system.ruby.network.routers6.throttle0.msg_bytes.Control::0      5207752                      
system.ruby.network.routers6.throttle0.msg_bytes.Response_Data::1     11741688                      
system.ruby.network.routers6.throttle0.msg_bytes.Response_Control::2      4025984                      
system.ruby.network.routers6.throttle0.msg_bytes.Writeback_Data::0     19606752                      
system.ruby.network.routers6.throttle0.msg_bytes.Writeback_Control::0       840600                      
system.ruby.network.routers6.throttle1.link_utilization     0.509661                      
system.ruby.network.routers6.throttle1.msg_count.Control::0       103648                      
system.ruby.network.routers6.throttle1.msg_count.Request_Control::2       118808                      
system.ruby.network.routers6.throttle1.msg_count.Response_Data::1       532159                      
system.ruby.network.routers6.throttle1.msg_count.Response_Control::1       436741                      
system.ruby.network.routers6.throttle1.msg_bytes.Control::0       829184                      
system.ruby.network.routers6.throttle1.msg_bytes.Request_Control::2       950464                      
system.ruby.network.routers6.throttle1.msg_bytes.Response_Data::1     38315448                      
system.ruby.network.routers6.throttle1.msg_bytes.Response_Control::1      3493928                      
system.ruby.network.routers7.throttle0.link_utilization     0.009695                      
system.ruby.network.routers7.throttle0.msg_count.Control::0       103648                      
system.ruby.network.routers7.throttle0.msg_bytes.Control::0       829184                      
system.ruby.network.routers7.throttle1.link_utilization     0.087256                      
system.ruby.network.routers7.throttle1.msg_count.Response_Data::1       103648                      
system.ruby.network.routers7.throttle1.msg_bytes.Response_Data::1      7462656                      
system.ruby.network.routers8.throttle0.link_utilization            0                      
system.ruby.network.routers8.throttle1.link_utilization            0                      
system.ruby.network.routers8.throttle2.link_utilization            0                      
system.ruby.network.routers8.throttle3.link_utilization     0.117588                      
system.ruby.network.routers8.throttle3.msg_count.Request_Control::2         7951                      
system.ruby.network.routers8.throttle3.msg_count.Response_Data::1       125387                      
system.ruby.network.routers8.throttle3.msg_count.Response_Control::1       120664                      
system.ruby.network.routers8.throttle3.msg_bytes.Request_Control::2        63608                      
system.ruby.network.routers8.throttle3.msg_bytes.Response_Data::1      9027864                      
system.ruby.network.routers8.throttle3.msg_bytes.Response_Control::1       965312                      
system.ruby.network.routers8.throttle4.link_utilization     0.260200                      
system.ruby.network.routers8.throttle4.msg_count.Request_Control::2        57206                      
system.ruby.network.routers8.throttle4.msg_count.Response_Data::1       277887                      
system.ruby.network.routers8.throttle4.msg_count.Response_Control::1       223531                      
system.ruby.network.routers8.throttle4.msg_bytes.Request_Control::2       457648                      
system.ruby.network.routers8.throttle4.msg_bytes.Response_Data::1     20007864                      
system.ruby.network.routers8.throttle4.msg_bytes.Response_Control::1      1788248                      
system.ruby.network.routers8.throttle5.link_utilization     0.178476                      
system.ruby.network.routers8.throttle5.msg_count.Request_Control::2        57341                      
system.ruby.network.routers8.throttle5.msg_count.Response_Data::1       188345                      
system.ruby.network.routers8.throttle5.msg_count.Response_Control::1       155592                      
system.ruby.network.routers8.throttle5.msg_bytes.Request_Control::2       458728                      
system.ruby.network.routers8.throttle5.msg_bytes.Response_Data::1     13560840                      
system.ruby.network.routers8.throttle5.msg_bytes.Response_Control::1      1244736                      
system.ruby.network.routers8.throttle6.link_utilization     0.484332                      
system.ruby.network.routers8.throttle6.msg_count.Control::0       650969                      
system.ruby.network.routers8.throttle6.msg_count.Response_Data::1       163079                      
system.ruby.network.routers8.throttle6.msg_count.Response_Control::2       503248                      
system.ruby.network.routers8.throttle6.msg_count.Writeback_Data::0       272316                      
system.ruby.network.routers8.throttle6.msg_count.Writeback_Control::0       105075                      
system.ruby.network.routers8.throttle6.msg_bytes.Control::0      5207752                      
system.ruby.network.routers8.throttle6.msg_bytes.Response_Data::1     11741688                      
system.ruby.network.routers8.throttle6.msg_bytes.Response_Control::2      4025984                      
system.ruby.network.routers8.throttle6.msg_bytes.Writeback_Data::0     19606752                      
system.ruby.network.routers8.throttle6.msg_bytes.Writeback_Control::0       840600                      
system.ruby.network.routers8.throttle7.link_utilization     0.009695                      
system.ruby.network.routers8.throttle7.msg_count.Control::0       103648                      
system.ruby.network.routers8.throttle7.msg_bytes.Control::0       829184                      
system.ruby.delayVCHist.vnet_0::bucket_size            4                       # delay histogram for vnet_0
system.ruby.delayVCHist.vnet_0::max_bucket           39                       # delay histogram for vnet_0
system.ruby.delayVCHist.vnet_0::samples       1531608                       # delay histogram for vnet_0
system.ruby.delayVCHist.vnet_0::mean         1.483045                       # delay histogram for vnet_0
system.ruby.delayVCHist.vnet_0::stdev        3.178714                       # delay histogram for vnet_0
[...]
system.ruby.L0Cache_Controller.M.L0_Replacement::total       453218                      
system.ruby.L0Cache_Controller.IS.Data   |          71      0.03%      0.03% |      117070     56.32%     56.36% |       90721     43.64%    100.00%
system.ruby.L0Cache_Controller.IS.Data::total       207862                      
system.ruby.L0Cache_Controller.IS.Data_Exclusive |        8300      1.19%      1.19% |      400651     57.48%     58.67% |      288048     41.33%    100.00%
system.ruby.L0Cache_Controller.IS.Data_Exclusive::total       696999                      
system.ruby.L0Cache_Controller.IM.Data_Exclusive |      127240     98.08%     98.08% |         870      0.67%     98.75% |        1623      1.25%    100.00%
system.ruby.L0Cache_Controller.IM.Data_Exclusive::total       129733                      
system.ruby.L0Cache_Controller.SM.Data_Exclusive |          31      0.05%      0.05% |       30502     51.40%     51.45% |       28813     48.55%    100.00%
system.ruby.L0Cache_Controller.SM.Data_Exclusive::total        59346                      
system.ruby.L1Cache_Controller.Load      |        8371      0.93%      0.93% |      517721     57.22%     58.14% |      378769     41.86%    100.00%
system.ruby.L1Cache_Controller.Load::total       904861                      
system.ruby.L1Cache_Controller.Store     |      127271     67.31%     67.31% |       31372     16.59%     83.90% |       30436     16.10%    100.00%
system.ruby.L1Cache_Controller.Store::total       189079                      
system.ruby.L1Cache_Controller.WriteBack |      133304     15.29%     15.29% |      426706     48.95%     64.25% |      311666     35.75%    100.00%
system.ruby.L1Cache_Controller.WriteBack::total       871676                      
system.ruby.L1Cache_Controller.L0_DataAck |         596     10.98%     10.98% |        4377     80.64%     91.62% |         455      8.38%    100.00%
system.ruby.L1Cache_Controller.L0_DataAck::total         5428                      
system.ruby.L1Cache_Controller.Inv       |        3955      6.27%      6.27% |       28572     45.32%     51.59% |       30519     48.41%    100.00%
system.ruby.L1Cache_Controller.Inv::total        63046                      
system.ruby.L1Cache_Controller.L0_Invalidate_Own |        2308      0.77%      0.77% |      174250     57.78%     58.55% |      125000     41.45%    100.00%
system.ruby.L1Cache_Controller.L0_Invalidate_Own::total       301558                      
system.ruby.L1Cache_Controller.L0_Invalidate_Else |         994      4.81%      4.81% |        8114     39.23%     44.04% |       11574     55.96%    100.00%
system.ruby.L1Cache_Controller.L0_Invalidate_Else::total        20682                      
system.ruby.L1Cache_Controller.L1_Replacement |      121082     21.99%     21.99% |      245234     44.54%     66.54% |      184240     33.46%    100.00%
system.ruby.L1Cache_Controller.L1_Replacement::total       550556                      
system.ruby.L1Cache_Controller.Fwd_GETX  |           6     28.57%     28.57% |          11     52.38%     80.95% |           4     19.05%    100.00%
system.ruby.L1Cache_Controller.Fwd_GETX::total           21                      
system.ruby.L1Cache_Controller.Fwd_GETS  |        3990      6.71%      6.71% |       28623     48.16%     54.87% |       26820     45.13%    100.00%
system.ruby.L1Cache_Controller.Fwd_GETS::total        59433                      
system.ruby.L1Cache_Controller.Data      |           0      0.00%      0.00% |           3     50.00%     50.00% |           3     50.00%    100.00%
system.ruby.L1Cache_Controller.Data::total            6                      
system.ruby.L1Cache_Controller.Data_Exclusive |        2482      0.96%      0.96% |      160180     61.81%     62.77% |       96493     37.23%    100.00%
system.ruby.L1Cache_Controller.Data_Exclusive::total       259155                      
system.ruby.L1Cache_Controller.DataS_fromL1 |          33      0.06%      0.06% |       26817     45.12%     45.18% |       32581     54.82%    100.00%
system.ruby.L1Cache_Controller.DataS_fromL1::total        59431                      
system.ruby.L1Cache_Controller.Data_all_Acks |      122872     45.00%     45.00% |       90887     33.29%     78.29% |       59268     21.71%    100.00%
system.ruby.L1Cache_Controller.Data_all_Acks::total       273027                      
system.ruby.L1Cache_Controller.L0_Ack    |        1055      0.68%      0.68% |       86805     55.75%     56.43% |       67832     43.57%    100.00%
system.ruby.L1Cache_Controller.L0_Ack::total       155692                      
system.ruby.L1Cache_Controller.Ack       |          38      0.06%      0.06% |       34187     54.23%     54.29% |       28815     45.71%    100.00%
system.ruby.L1Cache_Controller.Ack::total        63040                      
system.ruby.L1Cache_Controller.Ack_all   |          31      0.05%      0.05% |       30507     51.40%     51.45% |       28818     48.55%    100.00%
system.ruby.L1Cache_Controller.Ack_all::total        59356                      
system.ruby.L1Cache_Controller.WB_Ack    |      120595     31.95%     31.95% |      158837     42.09%     74.04% |       97959     25.96%    100.00%
system.ruby.L1Cache_Controller.WB_Ack::total       377391                      
system.ruby.L1Cache_Controller.NP.Load   |        2515      0.54%      0.54% |      277043     59.41%     59.95% |      186743     40.05%    100.00%
system.ruby.L1Cache_Controller.NP.Load::total       466301                      
system.ruby.L1Cache_Controller.NP.Store  |      122866     98.05%     98.05% |         843      0.67%     98.72% |        1601      1.28%    100.00%
system.ruby.L1Cache_Controller.NP.Store::total       125310                      
system.ruby.L1Cache_Controller.NP.Inv    |         487      1.67%      1.67% |           4      0.01%      1.69% |       28593     98.31%    100.00%
system.ruby.L1Cache_Controller.NP.Inv::total        29084                      
system.ruby.L1Cache_Controller.I.Load    |           6    100.00%    100.00% |           0      0.00%    100.00% |           0      0.00%    100.00%
system.ruby.L1Cache_Controller.I.Load::total            6                      
system.ruby.L1Cache_Controller.I.Store   |           0      0.00%      0.00% |           1     50.00%     50.00% |           1     50.00%    100.00%
system.ruby.L1Cache_Controller.I.Store::total            2                      
system.ruby.L1Cache_Controller.I.L1_Replacement |           0      0.00%      0.00% |           8     88.89%     88.89% |           1     11.11%    100.00%
system.ruby.L1Cache_Controller.I.L1_Replacement::total            9                      
system.ruby.L1Cache_Controller.S.Load    |           8      2.46%      2.46% |         176     54.15%     56.62% |         141     43.38%    100.00%
system.ruby.L1Cache_Controller.S.Load::total          325                      
system.ruby.L1Cache_Controller.S.Store   |          31      0.05%      0.05% |       30503     51.40%     51.45% |       28813     48.55%    100.00%
system.ruby.L1Cache_Controller.S.Store::total        59347                      
system.ruby.L1Cache_Controller.S.L0_Invalidate_Own |           0      0.00%      0.00% |       86365     58.33%     58.33% |       61704     41.67%    100.00%
system.ruby.L1Cache_Controller.S.L0_Invalidate_Own::total       148069                      
system.ruby.L1Cache_Controller.S.L0_Invalidate_Else |          14     41.18%     41.18% |           3      8.82%     50.00% |          17     50.00%    100.00%
system.ruby.L1Cache_Controller.S.L0_Invalidate_Else::total           34                      
system.ruby.L1Cache_Controller.SS.Load   |          24      6.23%      6.23% |          31      8.05%     14.29% |         330     85.71%    100.00%
system.ruby.L1Cache_Controller.SS.Load::total          385                      
system.ruby.L1Cache_Controller.SS.Store  |           0      0.00%      0.00% |           1     33.33%     33.33% |           2     66.67%    100.00%
system.ruby.L1Cache_Controller.SS.Store::total            3                      
system.ruby.L1Cache_Controller.SS.Inv    |        3468     10.21%     10.21% |       28568     84.12%     94.33% |        1926      5.67%    100.00%
system.ruby.L1Cache_Controller.SS.Inv::total        33962                      
system.ruby.L1Cache_Controller.SS.L1_Replacement |         487      0.28%      0.28% |       86389     49.89%     50.17% |       86280     49.83%    100.00%
system.ruby.L1Cache_Controller.SS.L1_Replacement::total       173156                      
system.ruby.L1Cache_Controller.E.WriteBack |         977      0.39%      0.39% |      159174     63.55%     63.94% |       90333     36.06%    100.00%
system.ruby.L1Cache_Controller.E.WriteBack::total       250484                      
system.ruby.L1Cache_Controller.E.L0_Invalidate_Own |        1051     43.68%     43.68% |         714     29.68%     73.36% |         641     26.64%    100.00%
system.ruby.L1Cache_Controller.E.L0_Invalidate_Own::total         2406                      
system.ruby.L1Cache_Controller.E.L0_Invalidate_Else |          14      0.25%      0.25% |          42      0.75%      1.01% |        5514     98.99%    100.00%
system.ruby.L1Cache_Controller.E.L0_Invalidate_Else::total         5570                      
system.ruby.L1Cache_Controller.EE.L1_Replacement |         982     54.07%     54.07% |         372     20.48%     74.56% |         462     25.44%    100.00%
system.ruby.L1Cache_Controller.EE.L1_Replacement::total         1816                      
system.ruby.L1Cache_Controller.EE.Fwd_GETS |          12      0.22%      0.22% |          39      0.70%      0.92% |        5510     99.08%    100.00%
system.ruby.L1Cache_Controller.EE.Fwd_GETS::total         5561                      
system.ruby.L1Cache_Controller.M.WriteBack |      132327     21.30%     21.30% |      267532     43.07%     64.37% |      221331     35.63%    100.00%
system.ruby.L1Cache_Controller.M.WriteBack::total       621190                      
system.ruby.L1Cache_Controller.M.L0_Invalidate_Own |         103     33.88%     33.88% |          46     15.13%     49.01% |         155     50.99%    100.00%
system.ruby.L1Cache_Controller.M.L0_Invalidate_Own::total          304                      
system.ruby.L1Cache_Controller.M.L0_Invalidate_Else |         469      9.90%      9.90% |        4012     84.69%     94.60% |         256      5.40%    100.00%
system.ruby.L1Cache_Controller.M.L0_Invalidate_Else::total         4737                      
system.ruby.L1Cache_Controller.MM.Load   |        5818      1.33%      1.33% |      240471     54.92%     56.25% |      191555     43.75%    100.00%
system.ruby.L1Cache_Controller.MM.Load::total       437844                      
system.ruby.L1Cache_Controller.MM.Store  |        4374     99.03%     99.03% |          24      0.54%     99.57% |          19      0.43%    100.00%
system.ruby.L1Cache_Controller.MM.Store::total         4417                      
system.ruby.L1Cache_Controller.MM.L1_Replacement |      119613     31.85%     31.85% |      158465     42.19%     74.04% |       97497     25.96%    100.00%
system.ruby.L1Cache_Controller.MM.L1_Replacement::total       375575                      
system.ruby.L1Cache_Controller.MM.Fwd_GETX |           6     28.57%     28.57% |          11     52.38%     80.95% |           4     19.05%    100.00%
system.ruby.L1Cache_Controller.MM.Fwd_GETX::total           21                      
system.ruby.L1Cache_Controller.MM.Fwd_GETS |        3978      7.38%      7.38% |       28584     53.06%     60.45% |       21308     39.55%    100.00%
system.ruby.L1Cache_Controller.MM.Fwd_GETS::total        53870                      
system.ruby.L1Cache_Controller.IS.Data_Exclusive |        2482      0.96%      0.96% |      160180     61.81%     62.77% |       96493     37.23%    100.00%
system.ruby.L1Cache_Controller.IS.Data_Exclusive::total       259155                      
system.ruby.L1Cache_Controller.IS.DataS_fromL1 |          33      0.06%      0.06% |       26817     45.12%     45.18% |       32581     54.82%    100.00%
system.ruby.L1Cache_Controller.IS.DataS_fromL1::total        59431                      
system.ruby.L1Cache_Controller.IS.Data_all_Acks |           6      0.00%      0.00% |       90046     60.96%     60.96% |       57669     39.04%    100.00%
system.ruby.L1Cache_Controller.IS.Data_all_Acks::total       147721                      
system.ruby.L1Cache_Controller.IM.Data   |           0      0.00%      0.00% |           3     50.00%     50.00% |           3     50.00%    100.00%
system.ruby.L1Cache_Controller.IM.Data::total            6                      
system.ruby.L1Cache_Controller.IM.Data_all_Acks |      122866     98.05%     98.05% |         841      0.67%     98.72% |        1599      1.28%    100.00%
system.ruby.L1Cache_Controller.IM.Data_all_Acks::total       125306                      
system.ruby.L1Cache_Controller.SM.Ack    |          38      0.06%      0.06% |       34187     54.23%     54.29% |       28815     45.71%    100.00%
system.ruby.L1Cache_Controller.SM.Ack::total        63040                      
system.ruby.L1Cache_Controller.SM.Ack_all |          31      0.05%      0.05% |       30507     51.40%     51.45% |       28818     48.55%    100.00%
system.ruby.L1Cache_Controller.SM.Ack_all::total        59356                      
system.ruby.L1Cache_Controller.M_I.WB_Ack |      120595     31.95%     31.95% |      158837     42.09%     74.04% |       97959     25.96%    100.00%
system.ruby.L1Cache_Controller.M_I.WB_Ack::total       377391                      
system.ruby.L1Cache_Controller.S_IL0.L0_Invalidate_Own |           0      0.00%      0.00% |       86365     58.33%     58.33% |       61704     41.67%    100.00%
system.ruby.L1Cache_Controller.S_IL0.L0_Invalidate_Own::total       148069                      
system.ruby.L1Cache_Controller.S_IL0.L0_Invalidate_Else |          14     41.18%     41.18% |           3      8.82%     50.00% |          17     50.00%    100.00%
system.ruby.L1Cache_Controller.S_IL0.L0_Invalidate_Else::total           34                      
system.ruby.L1Cache_Controller.S_IL0.L0_Ack |          14      0.01%      0.01% |       86368     58.32%     58.33% |       61721     41.67%    100.00%
system.ruby.L1Cache_Controller.S_IL0.L0_Ack::total       148103                      
system.ruby.L1Cache_Controller.E_IL0.WriteBack |           0      0.00%      0.00% |           0      0.00%      0.00% |           2    100.00%    100.00%
system.ruby.L1Cache_Controller.E_IL0.WriteBack::total            2                      
system.ruby.L1Cache_Controller.E_IL0.L0_DataAck |          71     11.89%     11.89% |         345     57.79%     69.68% |         181     30.32%    100.00%
system.ruby.L1Cache_Controller.E_IL0.L0_DataAck::total          597                      
system.ruby.L1Cache_Controller.E_IL0.L0_Invalidate_Own |        1051     43.68%     43.68% |         714     29.68%     73.36% |         641     26.64%    100.00%
system.ruby.L1Cache_Controller.E_IL0.L0_Invalidate_Own::total         2406                      
system.ruby.L1Cache_Controller.E_IL0.L0_Invalidate_Else |          14      0.25%      0.25% |          42      0.75%      1.01% |        5514     98.99%    100.00%
system.ruby.L1Cache_Controller.E_IL0.L0_Invalidate_Else::total         5570                      
system.ruby.L1Cache_Controller.E_IL0.L0_Ack |         994     13.47%     13.47% |         411      5.57%     19.05% |        5972     80.95%    100.00%
system.ruby.L1Cache_Controller.E_IL0.L0_Ack::total         7377                      
system.ruby.L1Cache_Controller.M_IL0.L0_DataAck |         525     10.87%     10.87% |        4032     83.46%     94.33% |         274      5.67%    100.00%
system.ruby.L1Cache_Controller.M_IL0.L0_DataAck::total         4831                      
system.ruby.L1Cache_Controller.M_IL0.L0_Invalidate_Own |         103     33.88%     33.88% |          46     15.13%     49.01% |         155     50.99%    100.00%
system.ruby.L1Cache_Controller.M_IL0.L0_Invalidate_Own::total          304                      
system.ruby.L1Cache_Controller.M_IL0.L0_Invalidate_Else |         469      9.90%      9.90% |        4012     84.69%     94.60% |         256      5.40%    100.00%
system.ruby.L1Cache_Controller.M_IL0.L0_Invalidate_Else::total         4737                      
system.ruby.L1Cache_Controller.M_IL0.L0_Ack |          47     22.38%     22.38% |          26     12.38%     34.76% |         137     65.24%    100.00%
system.ruby.L1Cache_Controller.M_IL0.L0_Ack::total          210                      
system.ruby.L1Cache_Controller.MM_IL0.Fwd_GETS |           0      0.00%      0.00% |           0      0.00%      0.00% |           2    100.00%    100.00%
system.ruby.L1Cache_Controller.MM_IL0.Fwd_GETS::total            2                      
system.ruby.L1Cache_Controller.MM_IL0.L0_Ack |           0      0.00%      0.00% |           0      0.00%      0.00% |           2    100.00%    100.00%
system.ruby.L1Cache_Controller.MM_IL0.L0_Ack::total            2                      
system.ruby.L2Cache_Controller.L1_GETS         466313      0.00%      0.00%
system.ruby.L2Cache_Controller.L1_GETX         125312      0.00%      0.00%
system.ruby.L2Cache_Controller.L1_UPGRADE        59350      0.00%      0.00%
system.ruby.L2Cache_Controller.L1_PUTX         377391      0.00%      0.00%
system.ruby.L2Cache_Controller.Mem_Data        103648      0.00%      0.00%
system.ruby.L2Cache_Controller.WB_Data          40033      0.00%      0.00%
system.ruby.L2Cache_Controller.WB_Data_clean        19398      0.00%      0.00%
system.ruby.L2Cache_Controller.Unblock          59431      0.00%      0.00%
system.ruby.L2Cache_Controller.Exclusive_Unblock       443817      0.00%      0.00%
system.ruby.L2Cache_Controller.NP.L1_GETS         7920      0.00%      0.00%
system.ruby.L2Cache_Controller.NP.L1_GETX        95728      0.00%      0.00%
system.ruby.L2Cache_Controller.SS.L1_GETS       147705      0.00%      0.00%
system.ruby.L2Cache_Controller.SS.L1_GETX            6      0.00%      0.00%
system.ruby.L2Cache_Controller.SS.L1_UPGRADE        59350      0.00%      0.00%
system.ruby.L2Cache_Controller.M.L1_GETS       251243      0.00%      0.00%
system.ruby.L2Cache_Controller.M.L1_GETX        29557      0.00%      0.00%
system.ruby.L2Cache_Controller.MT.L1_GETS        59431      0.00%      0.00%
system.ruby.L2Cache_Controller.MT.L1_GETX           21      0.00%      0.00%
system.ruby.L2Cache_Controller.MT.L1_PUTX       377391      0.00%      0.00%
system.ruby.L2Cache_Controller.ISS.L1_GETS            8      0.00%      0.00%
system.ruby.L2Cache_Controller.ISS.Mem_Data         7912      0.00%      0.00%
system.ruby.L2Cache_Controller.IS.Mem_Data            8      0.00%      0.00%
system.ruby.L2Cache_Controller.IM.Mem_Data        95728      0.00%      0.00%
system.ruby.L2Cache_Controller.SS_MB.L1_GETS            1      0.00%      0.00%
system.ruby.L2Cache_Controller.SS_MB.Exclusive_Unblock        59356      0.00%      0.00%
system.ruby.L2Cache_Controller.MT_MB.L1_GETS            3      0.00%      0.00%
system.ruby.L2Cache_Controller.MT_MB.Exclusive_Unblock       384461      0.00%      0.00%
system.ruby.L2Cache_Controller.MT_IIB.L1_GETS            2      0.00%      0.00%
system.ruby.L2Cache_Controller.MT_IIB.WB_Data        40023      0.00%      0.00%
system.ruby.L2Cache_Controller.MT_IIB.WB_Data_clean        19368      0.00%      0.00%
system.ruby.L2Cache_Controller.MT_IIB.Unblock           40      0.00%      0.00%
system.ruby.L2Cache_Controller.MT_IB.WB_Data           10      0.00%      0.00%
system.ruby.L2Cache_Controller.MT_IB.WB_Data_clean           30      0.00%      0.00%
system.ruby.L2Cache_Controller.MT_SB.Unblock        59391      0.00%      0.00%

---------- End Simulation Statistics   ----------
