
---------- Begin Simulation Statistics ----------
sim_seconds                                  0.019746                       # Number of seconds simulated
sim_ticks                                 19746376500                       # Number of ticks simulated
final_tick                                19746376500                       # Number of ticks from beginning of simulation (restored from checkpoints and never reset)
sim_freq                                 1000000000000                       # Frequency of simulated ticks
host_inst_rate                                 138653                       # Simulator instruction rate (inst/s)
host_op_rate                                   399817                       # Simulator op (including micro ops) rate (op/s)
host_tick_rate                              254077276                       # Simulator tick rate (ticks/s)
host_mem_usage                                 770952                       # Number of bytes of host memory used
host_seconds                                    77.72                       # Real time elapsed on the host
sim_insts                                    10775809                       # Number of instructions simulated
sim_ops                                      31072974                       # Number of ops (including micro ops) simulated
system.voltage_domain.voltage                       1                       # Voltage in Volts
system.clk_domain.clock                          1000                       # Clock period in ticks
system.mem_ctrls.bytes_read::ruby.dir_cntrl0      1010304                       # Number of bytes read from this memory
system.mem_ctrls.bytes_read::total            1010304                       # Number of bytes read from this memory
system.mem_ctrls.num_reads::ruby.dir_cntrl0        15786                       # Number of read requests responded to by this memory
system.mem_ctrls.num_reads::total               15786                       # Number of read requests responded to by this memory
system.mem_ctrls.bw_read::ruby.dir_cntrl0     51164020                       # Total read bandwidth from this memory (bytes/s)
system.mem_ctrls.bw_read::total              51164020                       # Total read bandwidth from this memory (bytes/s)
system.mem_ctrls.bw_total::ruby.dir_cntrl0     51164020                       # Total bandwidth to/from this memory (bytes/s)
system.mem_ctrls.bw_total::total             51164020                       # Total bandwidth to/from this memory (bytes/s)
system.mem_ctrls.readReqs                       15786                       # Number of read requests accepted
system.mem_ctrls.writeReqs                          0                       # Number of write requests accepted
system.mem_ctrls.readBursts                     15786                       # Number of DRAM read bursts, including those serviced by the write queue
system.mem_ctrls.writeBursts                        0                       # Number of DRAM write bursts, including those merged in the write queue
system.mem_ctrls.bytesReadDRAM                1010304                       # Total number of bytes read from DRAM
system.mem_ctrls.bytesReadWrQ                       0                       # Total number of bytes read from write queue
system.mem_ctrls.bytesWritten                       0                       # Total number of bytes written to DRAM
system.mem_ctrls.bytesReadSys                 1010304                       # Total read bytes from the system interface side
system.mem_ctrls.bytesWrittenSys                    0                       # Total written bytes from the system interface side
system.mem_ctrls.servicedByWrQ                      0                       # Number of DRAM read bursts serviced by the write queue
system.mem_ctrls.mergedWrBursts                     0                       # Number of DRAM write bursts merged with an existing one
system.mem_ctrls.neitherReadNorWriteReqs            0                       # Number of requests that are neither read nor write
system.mem_ctrls.perBankRdBursts::0              1100                       # Per bank write bursts
system.mem_ctrls.perBankRdBursts::1              1116                       # Per bank write bursts
system.mem_ctrls.perBankRdBursts::2              1037                       # Per bank write bursts
system.mem_ctrls.perBankRdBursts::3               928                       # Per bank write bursts
system.mem_ctrls.perBankRdBursts::4               948                       # Per bank write bursts
system.mem_ctrls.perBankRdBursts::5               974                       # Per bank write bursts
system.mem_ctrls.perBankRdBursts::6              1022                       # Per bank write bursts
system.mem_ctrls.perBankRdBursts::7               896                       # Per bank write bursts
system.mem_ctrls.perBankRdBursts::8               936                       # Per bank write bursts
system.mem_ctrls.perBankRdBursts::9               931                       # Per bank write bursts
system.mem_ctrls.perBankRdBursts::10              943                       # Per bank write bursts
system.mem_ctrls.perBankRdBursts::11              976                       # Per bank write bursts
system.mem_ctrls.perBankRdBursts::12              952                       # Per bank write bursts
system.mem_ctrls.perBankRdBursts::13              961                       # Per bank write bursts
system.mem_ctrls.perBankRdBursts::14              997                       # Per bank write bursts
system.mem_ctrls.perBankRdBursts::15             1069                       # Per bank write bursts
system.mem_ctrls.perBankWrBursts::0                 0                       # Per bank write bursts
system.mem_ctrls.perBankWrBursts::1                 0                       # Per bank write bursts
system.mem_ctrls.perBankWrBursts::2                 0                       # Per bank write bursts
system.mem_ctrls.perBankWrBursts::3                 0                       # Per bank write bursts
system.mem_ctrls.perBankWrBursts::4                 0                       # Per bank write bursts
system.mem_ctrls.perBankWrBursts::5                 0                       # Per bank write bursts
system.mem_ctrls.perBankWrBursts::6                 0                       # Per bank write bursts
system.mem_ctrls.perBankWrBursts::7                 0                       # Per bank write bursts
system.mem_ctrls.perBankWrBursts::8                 0                       # Per bank write bursts
system.mem_ctrls.perBankWrBursts::9                 0                       # Per bank write bursts
system.mem_ctrls.perBankWrBursts::10                0                       # Per bank write bursts
system.mem_ctrls.perBankWrBursts::11                0                       # Per bank write bursts
system.mem_ctrls.perBankWrBursts::12                0                       # Per bank write bursts
system.mem_ctrls.perBankWrBursts::13                0                       # Per bank write bursts
system.mem_ctrls.perBankWrBursts::14                0                       # Per bank write bursts
system.mem_ctrls.perBankWrBursts::15                0                       # Per bank write bursts
system.mem_ctrls.numRdRetry                         0                       # Number of times read queue was full causing retry
system.mem_ctrls.numWrRetry                         0                       # Number of times write queue was full causing retry
system.mem_ctrls.totGap                   19744851000                       # Total gap between requests
system.mem_ctrls.readPktSize::0                     0                       # Read request sizes (log2)
system.mem_ctrls.readPktSize::1                     0                       # Read request sizes (log2)
system.mem_ctrls.readPktSize::2                     0                       # Read request sizes (log2)
system.mem_ctrls.readPktSize::3                     0                       # Read request sizes (log2)
system.mem_ctrls.readPktSize::4                     0                       # Read request sizes (log2)
system.mem_ctrls.readPktSize::5                     0                       # Read request sizes (log2)
system.mem_ctrls.readPktSize::6                 15786                       # Read request sizes (log2)
system.mem_ctrls.writePktSize::0                    0                       # Write request sizes (log2)
system.mem_ctrls.writePktSize::1                    0                       # Write request sizes (log2)
system.mem_ctrls.writePktSize::2                    0                       # Write request sizes (log2)
system.mem_ctrls.writePktSize::3                    0                       # Write request sizes (log2)
system.mem_ctrls.writePktSize::4                    0                       # Write request sizes (log2)
system.mem_ctrls.writePktSize::5                    0                       # Write request sizes (log2)
system.mem_ctrls.writePktSize::6                    0                       # Write request sizes (log2)
system.mem_ctrls.rdQLenPdf::0                   15786                       # What read queue length does an incoming req see
system.mem_ctrls.rdQLenPdf::1                       0                       # What read queue length does an incoming req see
system.mem_ctrls.rdQLenPdf::2                       0                       # What read queue length does an incoming req see
system.mem_ctrls.rdQLenPdf::3                       0                       # What read queue length does an incoming req see
system.mem_ctrls.rdQLenPdf::4                       0                       # What read queue length does an incoming req see
system.mem_ctrls.rdQLenPdf::5                       0                       # What read queue length does an incoming req see
system.mem_ctrls.rdQLenPdf::6                       0                       # What read queue length does an incoming req see
system.mem_ctrls.rdQLenPdf::7                       0                       # What read queue length does an incoming req see
system.mem_ctrls.rdQLenPdf::8                       0                       # What read queue length does an incoming req see
system.mem_ctrls.rdQLenPdf::9                       0                       # What read queue length does an incoming req see
system.mem_ctrls.rdQLenPdf::10                      0                       # What read queue length does an incoming req see
system.mem_ctrls.rdQLenPdf::11                      0                       # What read queue length does an incoming req see
system.mem_ctrls.rdQLenPdf::12                      0                       # What read queue length does an incoming req see
system.mem_ctrls.rdQLenPdf::13                      0                       # What read queue length does an incoming req see
system.mem_ctrls.rdQLenPdf::14                      0                       # What read queue length does an incoming req see
system.mem_ctrls.rdQLenPdf::15                      0                       # What read queue length does an incoming req see
system.mem_ctrls.rdQLenPdf::16                      0                       # What read queue length does an incoming req see
system.mem_ctrls.rdQLenPdf::17                      0                       # What read queue length does an incoming req see
system.mem_ctrls.rdQLenPdf::18                      0                       # What read queue length does an incoming req see
system.mem_ctrls.rdQLenPdf::19                      0                       # What read queue length does an incoming req see
system.mem_ctrls.rdQLenPdf::20                      0                       # What read queue length does an incoming req see
system.mem_ctrls.rdQLenPdf::21                      0                       # What read queue length does an incoming req see
system.mem_ctrls.rdQLenPdf::22                      0                       # What read queue length does an incoming req see
system.mem_ctrls.rdQLenPdf::23                      0                       # What read queue length does an incoming req see
system.mem_ctrls.rdQLenPdf::24                      0                       # What read queue length does an incoming req see
system.mem_ctrls.rdQLenPdf::25                      0                       # What read queue length does an incoming req see
system.mem_ctrls.rdQLenPdf::26                      0                       # What read queue length does an incoming req see
system.mem_ctrls.rdQLenPdf::27                      0                       # What read queue length does an incoming req see
system.mem_ctrls.rdQLenPdf::28                      0                       # What read queue length does an incoming req see
system.mem_ctrls.rdQLenPdf::29                      0                       # What read queue length does an incoming req see
system.mem_ctrls.rdQLenPdf::30                      0                       # What read queue length does an incoming req see
system.mem_ctrls.rdQLenPdf::31                      0                       # What read queue length does an incoming req see
system.mem_ctrls.wrQLenPdf::0                       0                       # What write queue length does an incoming req see
system.mem_ctrls.wrQLenPdf::1                       0                       # What write queue length does an incoming req see
system.mem_ctrls.wrQLenPdf::2                       0                       # What write queue length does an incoming req see
system.mem_ctrls.wrQLenPdf::3                       0                       # What write queue length does an incoming req see
system.mem_ctrls.wrQLenPdf::4                       0                       # What write queue length does an incoming req see
system.mem_ctrls.wrQLenPdf::5                       0                       # What write queue length does an incoming req see
system.mem_ctrls.wrQLenPdf::6                       0                       # What write queue length does an incoming req see
system.mem_ctrls.wrQLenPdf::7                       0                       # What write queue length does an incoming req see
system.mem_ctrls.wrQLenPdf::8                       0                       # What write queue length does an incoming req see
system.mem_ctrls.wrQLenPdf::9                       0                       # What write queue length does an incoming req see
system.mem_ctrls.wrQLenPdf::10                      0                       # What write queue length does an incoming req see
system.mem_ctrls.wrQLenPdf::11                      0                       # What write queue length does an incoming req see
system.mem_ctrls.wrQLenPdf::12                      0                       # What write queue length does an incoming req see
system.mem_ctrls.wrQLenPdf::13                      0                       # What write queue length does an incoming req see
system.mem_ctrls.wrQLenPdf::14                      0                       # What write queue length does an incoming req see
system.mem_ctrls.wrQLenPdf::15                      0                       # What write queue length does an incoming req see
system.mem_ctrls.wrQLenPdf::16                      0                       # What write queue length does an incoming req see
system.mem_ctrls.wrQLenPdf::17                      0                       # What write queue length does an incoming req see
system.mem_ctrls.wrQLenPdf::18                      0                       # What write queue length does an incoming req see
system.mem_ctrls.wrQLenPdf::19                      0                       # What write queue length does an incoming req see
system.mem_ctrls.wrQLenPdf::20                      0                       # What write queue length does an incoming req see
system.mem_ctrls.wrQLenPdf::21                      0                       # What write queue length does an incoming req see
system.mem_ctrls.wrQLenPdf::22                      0                       # What write queue length does an incoming req see
system.mem_ctrls.wrQLenPdf::23                      0                       # What write queue length does an incoming req see
system.mem_ctrls.wrQLenPdf::24                      0                       # What write queue length does an incoming req see
system.mem_ctrls.wrQLenPdf::25                      0                       # What write queue length does an incoming req see
system.mem_ctrls.wrQLenPdf::26                      0                       # What write queue length does an incoming req see
system.mem_ctrls.wrQLenPdf::27                      0                       # What write queue length does an incoming req see
system.mem_ctrls.wrQLenPdf::28                      0                       # What write queue length does an incoming req see
system.mem_ctrls.wrQLenPdf::29                      0                       # What write queue length does an incoming req see
system.mem_ctrls.wrQLenPdf::30                      0                       # What write queue length does an incoming req see
system.mem_ctrls.wrQLenPdf::31                      0                       # What write queue length does an incoming req see
system.mem_ctrls.wrQLenPdf::32                      0                       # What write queue length does an incoming req see
system.mem_ctrls.wrQLenPdf::33                      0                       # What write queue length does an incoming req see
system.mem_ctrls.wrQLenPdf::34                      0                       # What write queue length does an incoming req see
system.mem_ctrls.wrQLenPdf::35                      0                       # What write queue length does an incoming req see
system.mem_ctrls.wrQLenPdf::36                      0                       # What write queue length does an incoming req see
system.mem_ctrls.wrQLenPdf::37                      0                       # What write queue length does an incoming req see
system.mem_ctrls.wrQLenPdf::38                      0                       # What write queue length does an incoming req see
system.mem_ctrls.wrQLenPdf::39                      0                       # What write queue length does an incoming req see
system.mem_ctrls.wrQLenPdf::40                      0                       # What write queue length does an incoming req see
system.mem_ctrls.wrQLenPdf::41                      0                       # What write queue length does an incoming req see
system.mem_ctrls.wrQLenPdf::42                      0                       # What write queue length does an incoming req see
system.mem_ctrls.wrQLenPdf::43                      0                       # What write queue length does an incoming req see
system.mem_ctrls.wrQLenPdf::44                      0                       # What write queue length does an incoming req see
system.mem_ctrls.wrQLenPdf::45                      0                       # What write queue length does an incoming req see
system.mem_ctrls.wrQLenPdf::46                      0                       # What write queue length does an incoming req see
system.mem_ctrls.wrQLenPdf::47                      0                       # What write queue length does an incoming req see
system.mem_ctrls.wrQLenPdf::48                      0                       # What write queue length does an incoming req see
system.mem_ctrls.wrQLenPdf::49                      0                       # What write queue length does an incoming req see
system.mem_ctrls.wrQLenPdf::50                      0                       # What write queue length does an incoming req see
system.mem_ctrls.wrQLenPdf::51                      0                       # What write queue length does an incoming req see
system.mem_ctrls.wrQLenPdf::52                      0                       # What write queue length does an incoming req see
system.mem_ctrls.wrQLenPdf::53                      0                       # What write queue length does an incoming req see
system.mem_ctrls.wrQLenPdf::54                      0                       # What write queue length does an incoming req see
system.mem_ctrls.wrQLenPdf::55                      0                       # What write queue length does an incoming req see
system.mem_ctrls.wrQLenPdf::56                      0                       # What write queue length does an incoming req see
system.mem_ctrls.wrQLenPdf::57                      0                       # What write queue length does an incoming req see
system.mem_ctrls.wrQLenPdf::58                      0                       # What write queue length does an incoming req see
system.mem_ctrls.wrQLenPdf::59                      0                       # What write queue length does an incoming req see
system.mem_ctrls.wrQLenPdf::60                      0                       # What write queue length does an incoming req see
system.mem_ctrls.wrQLenPdf::61                      0                       # What write queue length does an incoming req see
system.mem_ctrls.wrQLenPdf::62                      0                       # What write queue length does an incoming req see
system.mem_ctrls.wrQLenPdf::63                      0                       # What write queue length does an incoming req see
system.mem_ctrls.bytesPerActivate::samples         3057                       # Bytes accessed per row activation
system.mem_ctrls.bytesPerActivate::mean    330.488714                       # Bytes accessed per row activation
system.mem_ctrls.bytesPerActivate::gmean   284.628900                       # Bytes accessed per row activation
system.mem_ctrls.bytesPerActivate::stdev   204.654179                       # Bytes accessed per row activation
system.mem_ctrls.bytesPerActivate::0-127          170      5.56%      5.56% # Bytes accessed per row activation
system.mem_ctrls.bytesPerActivate::128-255          214      7.00%     12.56% # Bytes accessed per row activation
system.mem_ctrls.bytesPerActivate::256-383         2153     70.43%     82.99% # Bytes accessed per row activation
system.mem_ctrls.bytesPerActivate::384-511          187      6.12%     89.11% # Bytes accessed per row activation
system.mem_ctrls.bytesPerActivate::512-639           50      1.64%     90.74% # Bytes accessed per row activation
system.mem_ctrls.bytesPerActivate::640-767           53      1.73%     92.48% # Bytes accessed per row activation
system.mem_ctrls.bytesPerActivate::768-895           48      1.57%     94.05% # Bytes accessed per row activation
system.mem_ctrls.bytesPerActivate::896-1023           50      1.64%     95.68% # Bytes accessed per row activation
system.mem_ctrls.bytesPerActivate::1024-1151          132      4.32%    100.00% # Bytes accessed per row activation
system.mem_ctrls.bytesPerActivate::total         3057                       # Bytes accessed per row activation
system.mem_ctrls.totQLat                    123225250                       # Total ticks spent queuing
system.mem_ctrls.totMemAccLat               419212750                       # Total ticks spent from burst creation until serviced by the DRAM
system.mem_ctrls.totBusLat                   78930000                       # Total ticks spent in databus transfers
system.mem_ctrls.avgQLat                      7805.98                       # Average queueing delay per DRAM burst
system.mem_ctrls.avgBusLat                    5000.00                       # Average bus latency per DRAM burst
system.mem_ctrls.avgMemAccLat                26555.98                       # Average memory access latency per DRAM burst
system.mem_ctrls.avgRdBW                        51.16                       # Average DRAM read bandwidth in MiByte/s
system.mem_ctrls.avgWrBW                         0.00                       # Average achieved write bandwidth in MiByte/s
system.mem_ctrls.avgRdBWSys                     51.16                       # Average system read bandwidth in MiByte/s
system.mem_ctrls.avgWrBWSys                      0.00                       # Average system write bandwidth in MiByte/s
system.mem_ctrls.peakBW                      12800.00                       # Theoretical peak bandwidth in MiByte/s
system.mem_ctrls.busUtil                         0.40                       # Data bus utilization in percentage
system.mem_ctrls.busUtilRead                     0.40                       # Data bus utilization in percentage for reads
system.mem_ctrls.busUtilWrite                    0.00                       # Data bus utilization in percentage for writes
system.mem_ctrls.avgRdQLen                       1.00                       # Average read queue length when enqueuing
system.mem_ctrls.avgWrQLen                       0.00                       # Average write queue length when enqueuing
system.mem_ctrls.readRowHits                    12729                       # Number of row buffer hits during reads
system.mem_ctrls.writeRowHits                       0                       # Number of row buffer hits during writes
system.mem_ctrls.readRowHitRate                 80.63                       # Row buffer hit rate for reads
system.mem_ctrls.writeRowHitRate                  nan                       # Row buffer hit rate for writes
system.mem_ctrls.avgGap                    1250782.40                       # Average gap between requests
system.mem_ctrls.pageHitRate                    80.63                       # Row buffer hit rate, read and write combined
system.mem_ctrls_0.actEnergy                 11763360                       # Energy for activate commands per rank (pJ)
system.mem_ctrls_0.preEnergy                  6418500                       # Energy for precharge commands per rank (pJ)
system.mem_ctrls_0.readEnergy                62563800                       # Energy for read commands per rank (pJ)
system.mem_ctrls_0.writeEnergy                      0                       # Energy for write commands per rank (pJ)
system.mem_ctrls_0.refreshEnergy           1289708160                       # Energy for refresh commands per rank (pJ)
system.mem_ctrls_0.actBackEnergy           6384141360                       # Energy for active background per rank (pJ)
system.mem_ctrls_0.preBackEnergy           6247590000                       # Energy for precharge background per rank (pJ)
system.mem_ctrls_0.totalEnergy            14002185180                       # Total energy per rank (pJ)
system.mem_ctrls_0.averagePower            709.108197                       # Core power per rank (mW)
system.mem_ctrls_0.memoryStateTime::IDLE  10359088750                       # Time in different power states
system.mem_ctrls_0.memoryStateTime::REF     659360000                       # Time in different power states
system.mem_ctrls_0.memoryStateTime::PRE_PDN            0                       # Time in different power states
system.mem_ctrls_0.memoryStateTime::ACT    8727755000                       # Time in different power states
system.mem_ctrls_0.memoryStateTime::ACT_PDN            0                       # Time in different power states
system.mem_ctrls_1.actEnergy                 11347560                       # Energy for activate commands per rank (pJ)
system.mem_ctrls_1.preEnergy                  6191625                       # Energy for precharge commands per rank (pJ)
system.mem_ctrls_1.readEnergy                60567000                       # Energy for read commands per rank (pJ)
system.mem_ctrls_1.writeEnergy                      0                       # Energy for write commands per rank (pJ)
system.mem_ctrls_1.refreshEnergy           1289708160                       # Energy for refresh commands per rank (pJ)
system.mem_ctrls_1.actBackEnergy           6525047925                       # Energy for active background per rank (pJ)
system.mem_ctrls_1.preBackEnergy           6123979500                       # Energy for precharge background per rank (pJ)
system.mem_ctrls_1.totalEnergy            14016841770                       # Total energy per rank (pJ)
system.mem_ctrls_1.averagePower            709.850940                       # Core power per rank (mW)
system.mem_ctrls_1.memoryStateTime::IDLE  10152574250                       # Time in different power states
system.mem_ctrls_1.memoryStateTime::REF     659360000                       # Time in different power states
system.mem_ctrls_1.memoryStateTime::PRE_PDN            0                       # Time in different power states
system.mem_ctrls_1.memoryStateTime::ACT    8934255750                       # Time in different power states
system.mem_ctrls_1.memoryStateTime::ACT_PDN            0                       # Time in different power states
system.cpu_voltage_domain.voltage                   1                       # Voltage in Volts
system.cpu_clk_domain.clock                       500                       # Clock period in ticks
system.cpu0.apic_clk_domain.clock                8000                       # Clock period in ticks
system.cpu0.workload.num_syscalls                  33                       # Number of system calls
system.cpu0.numCycles                        39492752                       # number of cpu cycles simulated
system.cpu0.numWorkItemsStarted                     0                       # number of work items this cpu started
system.cpu0.numWorkItemsCompleted                   0                       # number of work items this cpu completed
system.cpu0.committedInsts                   10775809                       # Number of instructions committed
system.cpu0.committedOps                     31072974                       # Number of ops (including micro ops) committed
system.cpu0.num_int_alu_accesses             29302512                       # Number of integer alu accesses
system.cpu0.num_fp_alu_accesses                759020                       # Number of float alu accesses
system.cpu0.num_func_calls                    1058091                       # number of times a function call or return occured
system.cpu0.num_conditional_control_insts      2372309                       # number of instructions that are conditional controls
system.cpu0.num_int_insts                    29302512                       # number of integer instructions
system.cpu0.num_fp_insts                       759020                       # number of float instructions
system.cpu0.num_int_register_reads           61634297                       # number of times the integer registers were read
system.cpu0.num_int_register_writes          29273435                       # number of times the integer registers were written
system.cpu0.num_fp_register_reads             1220070                       # number of times the floating registers were read
system.cpu0.num_fp_register_writes             597016                       # number of times the floating registers were written
system.cpu0.num_cc_register_reads            24742536                       # number of times the CC registers were read
system.cpu0.num_cc_register_writes            9306582                       # number of times the CC registers were written
system.cpu0.num_mem_refs                      4640439                       # number of memory refs
system.cpu0.num_load_insts                    2815837                       # Number of load instructions
system.cpu0.num_store_insts                   1824602                       # Number of store instructions
system.cpu0.num_idle_cycles                         0                       # Number of idle cycles
system.cpu0.num_busy_cycles                  39492752                       # Number of busy cycles
system.cpu0.not_idle_fraction                       1                       # Percentage of non-idle cycles
system.cpu0.idle_fraction                           0                       # Percentage of idle cycles
system.cpu0.Branches                          3937038                       # Number of branches fetched
system.cpu0.op_class::No_OpClass               606600      1.95%      1.95% # Class of executed instruction
system.cpu0.op_class::IntAlu                 22595764     72.72%     74.67% # Class of executed instruction
system.cpu0.op_class::IntMult                     112      0.00%     74.67% # Class of executed instruction
system.cpu0.op_class::IntDiv                  2633477      8.48%     83.15% # Class of executed instruction
system.cpu0.op_class::FloatAdd                 596582      1.92%     85.07% # Class of executed instruction
system.cpu0.op_class::FloatCmp                      0      0.00%     85.07% # Class of executed instruction
system.cpu0.op_class::FloatCvt                      0      0.00%     85.07% # Class of executed instruction
system.cpu0.op_class::FloatMult                     0      0.00%     85.07% # Class of executed instruction
system.cpu0.op_class::FloatDiv                      0      0.00%     85.07% # Class of executed instruction
system.cpu0.op_class::FloatSqrt                     0      0.00%     85.07% # Class of executed instruction
system.cpu0.op_class::SimdAdd                       0      0.00%     85.07% # Class of executed instruction
system.cpu0.op_class::SimdAddAcc                    0      0.00%     85.07% # Class of executed instruction
system.cpu0.op_class::SimdAlu                       0      0.00%     85.07% # Class of executed instruction
system.cpu0.op_class::SimdCmp                       0      0.00%     85.07% # Class of executed instruction
system.cpu0.op_class::SimdCvt                       0      0.00%     85.07% # Class of executed instruction
system.cpu0.op_class::SimdMisc                      0      0.00%     85.07% # Class of executed instruction
system.cpu0.op_class::SimdMult                      0      0.00%     85.07% # Class of executed instruction
system.cpu0.op_class::SimdMultAcc                   0      0.00%     85.07% # Class of executed instruction
system.cpu0.op_class::SimdShift                     0      0.00%     85.07% # Class of executed instruction
system.cpu0.op_class::SimdShiftAcc                  0      0.00%     85.07% # Class of executed instruction
system.cpu0.op_class::SimdSqrt                      0      0.00%     85.07% # Class of executed instruction
system.cpu0.op_class::SimdFloatAdd                  0      0.00%     85.07% # Class of executed instruction
system.cpu0.op_class::SimdFloatAlu                  0      0.00%     85.07% # Class of executed instruction
system.cpu0.op_class::SimdFloatCmp                  0      0.00%     85.07% # Class of executed instruction
system.cpu0.op_class::SimdFloatCvt                  0      0.00%     85.07% # Class of executed instruction
system.cpu0.op_class::SimdFloatDiv                  0      0.00%     85.07% # Class of executed instruction
system.cpu0.op_class::SimdFloatMisc                 0      0.00%     85.07% # Class of executed instruction
system.cpu0.op_class::SimdFloatMult                 0      0.00%     85.07% # Class of executed instruction
system.cpu0.op_class::SimdFloatMultAcc              0      0.00%     85.07% # Class of executed instruction
system.cpu0.op_class::SimdFloatSqrt                 0      0.00%     85.07% # Class of executed instruction
system.cpu0.op_class::MemRead                 2815837      9.06%     94.13% # Class of executed instruction
system.cpu0.op_class::MemWrite                1824602      5.87%    100.00% # Class of executed instruction
system.cpu0.op_class::IprAccess                     0      0.00%    100.00% # Class of executed instruction
system.cpu0.op_class::InstPrefetch                  0      0.00%    100.00% # Class of executed instruction
system.cpu0.op_class::total                  31072974                       # Class of executed instruction
system.cpu1.apic_clk_domain.clock                8000                       # Clock period in ticks
system.cpu1.numCycles                               0                       # number of cpu cycles simulated
system.cpu1.numWorkItemsStarted                     0                       # number of work items this cpu started
system.cpu1.numWorkItemsCompleted                   0                       # number of work items this cpu completed
system.cpu1.committedInsts                          0                       # Number of instructions committed
system.cpu1.committedOps                            0                       # Number of ops (including micro ops) committed
system.cpu1.num_int_alu_accesses                    0                       # Number of integer alu accesses
system.cpu1.num_fp_alu_accesses                     0                       # Number of float alu accesses
system.cpu1.num_func_calls                          0                       # number of times a function call or return occured
system.cpu1.num_conditional_control_insts            0                       # number of instructions that are conditional controls
system.cpu1.num_int_insts                           0                       # number of integer instructions
system.cpu1.num_fp_insts                            0                       # number of float instructions
system.cpu1.num_int_register_reads                  0                       # number of times the integer registers were read
system.cpu1.num_int_register_writes                 0                       # number of times the integer registers were written
system.cpu1.num_fp_register_reads                   0                       # number of times the floating registers were read
system.cpu1.num_fp_register_writes                  0                       # number of times the floating registers were written
system.cpu1.num_mem_refs                            0                       # number of memory refs
system.cpu1.num_load_insts                          0                       # Number of load instructions
system.cpu1.num_store_insts                         0                       # Number of store instructions
system.cpu1.num_idle_cycles                         0                       # Number of idle cycles
system.cpu1.num_busy_cycles                         0                       # Number of busy cycles
system.cpu1.not_idle_fraction                       0                       # Percentage of non-idle cycles
system.cpu1.idle_fraction                           1                       # Percentage of idle cycles
system.cpu1.op_class::No_OpClass                    0                       # Class of executed instruction
system.cpu1.op_class::IntAlu                        0                       # Class of executed instruction
system.cpu1.op_class::IntMult                       0                       # Class of executed instruction
system.cpu1.op_class::IntDiv                        0                       # Class of executed instruction
system.cpu1.op_class::FloatAdd                      0                       # Class of executed instruction
system.cpu1.op_class::FloatCmp                      0                       # Class of executed instruction
system.cpu1.op_class::FloatCvt                      0                       # Class of executed instruction
system.cpu1.op_class::FloatMult                     0                       # Class of executed instruction
system.cpu1.op_class::FloatDiv                      0                       # Class of executed instruction
system.cpu1.op_class::FloatSqrt                     0                       # Class of executed instruction
system.cpu1.op_class::SimdAdd                       0                       # Class of executed instruction
system.cpu1.op_class::SimdAddAcc                    0                       # Class of executed instruction
system.cpu1.op_class::SimdAlu                       0                       # Class of executed instruction
system.cpu1.op_class::SimdCmp                       0                       # Class of executed instruction
system.cpu1.op_class::SimdCvt                       0                       # Class of executed instruction
system.cpu1.op_class::SimdMisc                      0                       # Class of executed instruction
system.cpu1.op_class::SimdMult                      0                       # Class of executed instruction
system.cpu1.op_class::SimdMultAcc                   0                       # Class of executed instruction
system.cpu1.op_class::SimdShift                     0                       # Class of executed instruction
system.cpu1.op_class::SimdShiftAcc                  0                       # Class of executed instruction
system.cpu1.op_class::SimdSqrt                      0                       # Class of executed instruction
system.cpu1.op_class::SimdFloatAdd                  0                       # Class of executed instruction
system.cpu1.op_class::SimdFloatAlu                  0                       # Class of executed instruction
system.cpu1.op_class::SimdFloatCmp                  0                       # Class of executed instruction
system.cpu1.op_class::SimdFloatCvt                  0                       # Class of executed instruction
system.cpu1.op_class::SimdFloatDiv                  0                       # Class of executed instruction
system.cpu1.op_class::SimdFloatMisc                 0                       # Class of executed instruction
system.cpu1.op_class::SimdFloatMult                 0                       # Class of executed instruction
system.cpu1.op_class::SimdFloatMultAcc              0                       # Class of executed instruction
system.cpu1.op_class::SimdFloatSqrt                 0                       # Class of executed instruction
system.cpu1.op_class::MemRead                       0                       # Class of executed instruction
system.cpu1.op_class::MemWrite                      0                       # Class of executed instruction
system.cpu1.op_class::IprAccess                     0                       # Class of executed instruction
system.cpu1.op_class::InstPrefetch                  0                       # Class of executed instruction
system.cpu1.op_class::total                         0                       # Class of executed instruction
system.cpu2.apic_clk_domain.clock                8000                       # Clock period in ticks
system.cpu2.numCycles                               0                       # number of cpu cycles simulated
system.cpu2.numWorkItemsStarted                     0                       # number of work items this cpu started
system.cpu2.numWorkItemsCompleted                   0                       # number of work items this cpu completed
system.cpu2.committedInsts                          0                       # Number of instructions committed
system.cpu2.committedOps                            0                       # Number of ops (including micro ops) committed
system.cpu2.num_int_alu_accesses                    0                       # Number of integer alu accesses
system.cpu2.num_fp_alu_accesses                     0                       # Number of float alu accesses
system.cpu2.num_func_calls                          0                       # number of times a function call or return occured
system.cpu2.num_conditional_control_insts            0                       # number of instructions that are conditional controls
system.cpu2.num_int_insts                           0                       # number of integer instructions
system.cpu2.num_fp_insts                            0                       # number of float instructions
system.cpu2.num_int_register_reads                  0                       # number of times the integer registers were read
system.cpu2.num_int_register_writes                 0                       # number of times the integer registers were written
system.cpu2.num_fp_register_reads                   0                       # number of times the floating registers were read
system.cpu2.num_fp_register_writes                  0                       # number of times the floating registers were written
system.cpu2.num_mem_refs                            0                       # number of memory refs
system.cpu2.num_load_insts                          0                       # Number of load instructions
system.cpu2.num_store_insts                         0                       # Number of store instructions
system.cpu2.num_idle_cycles                         0                       # Number of idle cycles
system.cpu2.num_busy_cycles                         0                       # Number of busy cycles
system.cpu2.not_idle_fraction                       0                       # Percentage of non-idle cycles
system.cpu2.idle_fraction                           1                       # Percentage of idle cycles
system.cpu2.op_class::No_OpClass                    0                       # Class of executed instruction
system.cpu2.op_class::IntAlu                        0                       # Class of executed instruction
system.cpu2.op_class::IntMult                       0                       # Class of executed instruction
system.cpu2.op_class::IntDiv                        0                       # Class of executed instruction
system.cpu2.op_class::FloatAdd                      0                       # Class of executed instruction
system.cpu2.op_class::FloatCmp                      0                       # Class of executed instruction
system.cpu2.op_class::FloatCvt                      0                       # Class of executed instruction
system.cpu2.op_class::FloatMult                     0                       # Class of executed instruction
system.cpu2.op_class::FloatDiv                      0                       # Class of executed instruction
system.cpu2.op_class::FloatSqrt                     0                       # Class of executed instruction
system.cpu2.op_class::SimdAdd                       0                       # Class of executed instruction
system.cpu2.op_class::SimdAddAcc                    0                       # Class of executed instruction
system.cpu2.op_class::SimdAlu                       0                       # Class of executed instruction
system.cpu2.op_class::SimdCmp                       0                       # Class of executed instruction
system.cpu2.op_class::SimdCvt                       0                       # Class of executed instruction
system.cpu2.op_class::SimdMisc                      0                       # Class of executed instruction
system.cpu2.op_class::SimdMult                      0                       # Class of executed instruction
system.cpu2.op_class::SimdMultAcc                   0                       # Class of executed instruction
system.cpu2.op_class::SimdShift                     0                       # Class of executed instruction
system.cpu2.op_class::SimdShiftAcc                  0                       # Class of executed instruction
system.cpu2.op_class::SimdSqrt                      0                       # Class of executed instruction
system.cpu2.op_class::SimdFloatAdd                  0                       # Class of executed instruction
system.cpu2.op_class::SimdFloatAlu                  0                       # Class of executed instruction
system.cpu2.op_class::SimdFloatCmp                  0                       # Class of executed instruction
system.cpu2.op_class::SimdFloatCvt                  0                       # Class of executed instruction
system.cpu2.op_class::SimdFloatDiv                  0                       # Class of executed instruction
system.cpu2.op_class::SimdFloatMisc                 0                       # Class of executed instruction
system.cpu2.op_class::SimdFloatMult                 0                       # Class of executed instruction
system.cpu2.op_class::SimdFloatMultAcc              0                       # Class of executed instruction
system.cpu2.op_class::SimdFloatSqrt                 0                       # Class of executed instruction
system.cpu2.op_class::MemRead                       0                       # Class of executed instruction
system.cpu2.op_class::MemWrite                      0                       # Class of executed instruction
system.cpu2.op_class::IprAccess                     0                       # Class of executed instruction
system.cpu2.op_class::InstPrefetch                  0                       # Class of executed instruction
system.cpu2.op_class::total                         0                       # Class of executed instruction
system.ruby.clk_domain.clock                      500                       # Clock period in ticks
system.ruby.delayHist::bucket_size                  1                       # delay histogram for all message
system.ruby.delayHist::max_bucket                   9                       # delay histogram for all message
system.ruby.delayHist::samples                  89034                       # delay histogram for all message
system.ruby.delayHist::mean                  0.394815                       # delay histogram for all message
system.ruby.delayHist::stdev                 1.732824                       # delay histogram for all message
system.ruby.delayHist                    |       84640     95.06%     95.06% |           0      0.00%     95.06% |           0      0.00%     95.06% |           0      0.00%     95.06% |           0      0.00%     95.06% |           0      0.00%     95.06% |           0      0.00%     95.06% |           0      0.00%     95.06% |        4394      4.94%    100.00% |           0      0.00%    100.00% # delay histogram for all message
system.ruby.delayHist::total                    89034                       # delay histogram for all message
system.ruby.outstanding_req_hist::bucket_size            1                      
system.ruby.outstanding_req_hist::max_bucket            9                      
system.ruby.outstanding_req_hist::samples     18712789                      
system.ruby.outstanding_req_hist::mean       1.000002                      
system.ruby.outstanding_req_hist::gmean      1.000001                      
system.ruby.outstanding_req_hist::stdev      0.001328                      
system.ruby.outstanding_req_hist         |           0      0.00%      0.00% |    18712756    100.00%    100.00% |          33      0.00%    100.00% |           0      0.00%    100.00% |           0      0.00%    100.00% |           0      0.00%    100.00% |           0      0.00%    100.00% |           0      0.00%    100.00% |           0      0.00%    100.00% |           0      0.00%    100.00%
system.ruby.outstanding_req_hist::total      18712789                      
system.ruby.latency_hist::bucket_size             128                      
system.ruby.latency_hist::max_bucket             1279                      
system.ruby.latency_hist::samples            18712789                      
system.ruby.latency_hist::mean               1.110471                      
system.ruby.latency_hist::gmean              1.004095                      
system.ruby.latency_hist::stdev              4.255532                      
system.ruby.latency_hist                 |    18709732     99.98%     99.98% |        2602      0.01%    100.00% |         145      0.00%    100.00% |          71      0.00%    100.00% |         173      0.00%    100.00% |          66      0.00%    100.00% |           0      0.00%    100.00% |           0      0.00%    100.00% |           0      0.00%    100.00% |           0      0.00%    100.00%
system.ruby.latency_hist::total              18712789                      
system.ruby.hit_latency_hist::bucket_size          128                      
system.ruby.hit_latency_hist::max_bucket         1279                      
system.ruby.hit_latency_hist::samples        18712789                      
system.ruby.hit_latency_hist::mean           1.110471                      
system.ruby.hit_latency_hist::gmean          1.004095                      
system.ruby.hit_latency_hist::stdev          4.255532                      
system.ruby.hit_latency_hist             |    18709732     99.98%     99.98% |        2602      0.01%    100.00% |         145      0.00%    100.00% |          71      0.00%    100.00% |         173      0.00%    100.00% |          66      0.00%    100.00% |           0      0.00%    100.00% |           0      0.00%    100.00% |           0      0.00%    100.00% |           0      0.00%    100.00%
system.ruby.hit_latency_hist::total          18712789                      
system.ruby.l0_cntrl0.Dcache.demand_hits      4625488                       # Number of cache demand hits
system.ruby.l0_cntrl0.Dcache.demand_misses        14984                       # Number of cache demand misses
system.ruby.l0_cntrl0.Dcache.demand_accesses      4640472                       # Number of cache demand accesses
system.ruby.l0_cntrl0.Icache.demand_hits     14071442                       # Number of cache demand hits
system.ruby.l0_cntrl0.Icache.demand_misses          875                       # Number of cache demand misses
system.ruby.l0_cntrl0.Icache.demand_accesses     14072317                       # Number of cache demand accesses
system.ruby.l0_cntrl0.Zcache.demand_hits      1107955                       # Number of cache demand hits
system.ruby.l0_cntrl0.Zcache.demand_misses        14767                       # Number of cache demand misses
system.ruby.l0_cntrl0.Zcache.demand_accesses      1122722                       # Number of cache demand accesses
system.ruby.l0_cntrl1.Dcache.demand_hits            0                       # Number of cache demand hits
system.ruby.l0_cntrl1.Dcache.demand_misses            0                       # Number of cache demand misses
system.ruby.l0_cntrl1.Dcache.demand_accesses            0                       # Number of cache demand accesses
system.ruby.l0_cntrl1.Icache.demand_hits            0                       # Number of cache demand hits
system.ruby.l0_cntrl1.Icache.demand_misses            0                       # Number of cache demand misses
system.ruby.l0_cntrl1.Icache.demand_accesses            0                       # Number of cache demand accesses
system.ruby.l0_cntrl1.Zcache.demand_hits            0                       # Number of cache demand hits
system.ruby.l0_cntrl1.Zcache.demand_misses            0                       # Number of cache demand misses
system.ruby.l0_cntrl1.Zcache.demand_accesses            0                       # Number of cache demand accesses
system.ruby.l0_cntrl2.Dcache.demand_hits            0                       # Number of cache demand hits
system.ruby.l0_cntrl2.Dcache.demand_misses            0                       # Number of cache demand misses
system.ruby.l0_cntrl2.Dcache.demand_accesses            0                       # Number of cache demand accesses
system.ruby.l0_cntrl2.Icache.demand_hits            0                       # Number of cache demand hits
system.ruby.l0_cntrl2.Icache.demand_misses            0                       # Number of cache demand misses
system.ruby.l0_cntrl2.Icache.demand_accesses            0                       # Number of cache demand accesses
system.ruby.l0_cntrl2.Zcache.demand_hits            0                       # Number of cache demand hits
system.ruby.l0_cntrl2.Zcache.demand_misses            0                       # Number of cache demand misses
system.ruby.l0_cntrl2.Zcache.demand_accesses            0                       # Number of cache demand accesses
system.ruby.l1_cntrl0.cache.demand_hits            38                       # Number of cache demand hits
system.ruby.l1_cntrl0.cache.demand_misses        15821                       # Number of cache demand misses
system.ruby.l1_cntrl0.cache.demand_accesses        15859                       # Number of cache demand accesses
system.ruby.l1_cntrl0.zcache.demand_hits            1                       # Number of cache demand hits
system.ruby.l1_cntrl0.zcache.demand_misses         3072                       # Number of cache demand misses
system.ruby.l1_cntrl0.zcache.demand_accesses         3073                       # Number of cache demand accesses
system.ruby.l1_cntrl1.cache.demand_hits             0                       # Number of cache demand hits
system.ruby.l1_cntrl1.cache.demand_misses            0                       # Number of cache demand misses
system.ruby.l1_cntrl1.cache.demand_accesses            0                       # Number of cache demand accesses
system.ruby.l1_cntrl1.zcache.demand_hits            0                       # Number of cache demand hits
system.ruby.l1_cntrl1.zcache.demand_misses            0                       # Number of cache demand misses
system.ruby.l1_cntrl1.zcache.demand_accesses            0                       # Number of cache demand accesses
system.ruby.l1_cntrl2.cache.demand_hits             0                       # Number of cache demand hits
system.ruby.l1_cntrl2.cache.demand_misses            0                       # Number of cache demand misses
system.ruby.l1_cntrl2.cache.demand_accesses            0                       # Number of cache demand accesses
system.ruby.l1_cntrl2.zcache.demand_hits            0                       # Number of cache demand hits
system.ruby.l1_cntrl2.zcache.demand_misses            0                       # Number of cache demand misses
system.ruby.l1_cntrl2.zcache.demand_accesses            0                       # Number of cache demand accesses
system.ruby.l2_cntrl0.L2cache.demand_hits           35                       # Number of cache demand hits
system.ruby.l2_cntrl0.L2cache.demand_misses        15786                       # Number of cache demand misses
system.ruby.l2_cntrl0.L2cache.demand_accesses        15821                       # Number of cache demand accesses
system.ruby.l2_cntrl0.ZL2cache.demand_hits            0                       # Number of cache demand hits
system.ruby.l2_cntrl0.ZL2cache.demand_misses            0                       # Number of cache demand misses
system.ruby.l2_cntrl0.ZL2cache.demand_accesses            0                       # Number of cache demand accesses
system.ruby.memctrl_clk_domain.clock             1500                       # Clock period in ticks
system.ruby.network.routers0.percent_links_utilized            0                      
system.ruby.network.routers1.percent_links_utilized            0                      
system.ruby.network.routers2.percent_links_utilized            0                      
system.ruby.network.routers3.percent_links_utilized     0.138188                      
system.ruby.network.routers3.msg_count.Control::0        15821                      
system.ruby.network.routers3.msg_count.Response_Data::1        15821                      
system.ruby.network.routers3.msg_count.Response_Control::1         4557                      
system.ruby.network.routers3.msg_count.Response_Control::2        15821                      
system.ruby.network.routers3.msg_count.Writeback_Data::0         4394                      
system.ruby.network.routers3.msg_count.Writeback_Control::0          163                      
system.ruby.network.routers3.msg_bytes.Control::0       126568                      
system.ruby.network.routers3.msg_bytes.Response_Data::1      1139112                      
system.ruby.network.routers3.msg_bytes.Response_Control::1        36456                      
system.ruby.network.routers3.msg_bytes.Response_Control::2       126568                      
system.ruby.network.routers3.msg_bytes.Writeback_Data::0       316368                      
system.ruby.network.routers3.msg_bytes.Writeback_Control::0         1304                      
system.ruby.network.routers4.percent_links_utilized            0                      
system.ruby.network.routers5.percent_links_utilized            0                      
system.ruby.network.routers6.percent_links_utilized     0.238118                      
system.ruby.network.routers6.msg_count.Control::0        31607                      
system.ruby.network.routers6.msg_count.Response_Data::1        31607                      
system.ruby.network.routers6.msg_count.Response_Control::1         4557                      
system.ruby.network.routers6.msg_count.Response_Control::2        15821                      
system.ruby.network.routers6.msg_count.Writeback_Data::0         4394                      
system.ruby.network.routers6.msg_count.Writeback_Control::0          163                      
system.ruby.network.routers6.msg_bytes.Control::0       252856                      
system.ruby.network.routers6.msg_bytes.Response_Data::1      2275704                      
system.ruby.network.routers6.msg_bytes.Response_Control::1        36456                      
system.ruby.network.routers6.msg_bytes.Response_Control::2       126568                      
system.ruby.network.routers6.msg_bytes.Writeback_Data::0       316368                      
system.ruby.network.routers6.msg_bytes.Writeback_Control::0         1304                      
system.ruby.network.routers7.percent_links_utilized     0.099930                      
system.ruby.network.routers7.msg_count.Control::0        15786                      
system.ruby.network.routers7.msg_count.Response_Data::1        15786                      
system.ruby.network.routers7.msg_bytes.Control::0       126288                      
system.ruby.network.routers7.msg_bytes.Response_Data::1      1136592                      
system.ruby.network.routers8.percent_links_utilized     0.059529                      
system.ruby.network.routers8.msg_count.Control::0        31607                      
system.ruby.network.routers8.msg_count.Response_Data::1        31607                      
system.ruby.network.routers8.msg_count.Response_Control::1         4557                      
system.ruby.network.routers8.msg_count.Response_Control::2        15821                      
system.ruby.network.routers8.msg_count.Writeback_Data::0         4394                      
system.ruby.network.routers8.msg_count.Writeback_Control::0          163                      
system.ruby.network.routers8.msg_bytes.Control::0       252856                      
system.ruby.network.routers8.msg_bytes.Response_Data::1      2275704                      
system.ruby.network.routers8.msg_bytes.Response_Control::1        36456                      
system.ruby.network.routers8.msg_bytes.Response_Control::2       126568                      
system.ruby.network.routers8.msg_bytes.Writeback_Data::0       316368                      
system.ruby.network.routers8.msg_bytes.Writeback_Control::0         1304                      
system.ruby.network.msg_count.Control           94821                      
system.ruby.network.msg_count.Response_Data        94821                      
system.ruby.network.msg_count.Response_Control        61134                      
system.ruby.network.msg_count.Writeback_Data        13182                      
system.ruby.network.msg_count.Writeback_Control          489                      
system.ruby.network.msg_byte.Control           758568                      
system.ruby.network.msg_byte.Response_Data      6827112                      
system.ruby.network.msg_byte.Response_Control       489072                      
system.ruby.network.msg_byte.Writeback_Data       949104                      
system.ruby.network.msg_byte.Writeback_Control         3912                      
system.ruby.network.routers0.throttle0.link_utilization            0                      
system.ruby.network.routers0.throttle1.link_utilization            0                      
system.ruby.network.routers1.throttle0.link_utilization            0                      
system.ruby.network.routers1.throttle1.link_utilization            0                      
system.ruby.network.routers2.throttle0.link_utilization            0                      
system.ruby.network.routers2.throttle1.link_utilization            0                      
system.ruby.network.routers3.throttle0.link_utilization     0.186042                      
system.ruby.network.routers3.throttle0.msg_count.Response_Data::1        15821                      
system.ruby.network.routers3.throttle0.msg_count.Response_Control::1         4557                      
system.ruby.network.routers3.throttle0.msg_bytes.Response_Data::1      1139112                      
system.ruby.network.routers3.throttle0.msg_bytes.Response_Control::1        36456                      
system.ruby.network.routers3.throttle1.link_utilization     0.090334                      
system.ruby.network.routers3.throttle1.msg_count.Control::0        15821                      
system.ruby.network.routers3.throttle1.msg_count.Response_Control::2        15821                      
system.ruby.network.routers3.throttle1.msg_count.Writeback_Data::0         4394                      
system.ruby.network.routers3.throttle1.msg_count.Writeback_Control::0          163                      
system.ruby.network.routers3.throttle1.msg_bytes.Control::0       126568                      
system.ruby.network.routers3.throttle1.msg_bytes.Response_Control::2       126568                      
system.ruby.network.routers3.throttle1.msg_bytes.Writeback_Data::0       316368                      
system.ruby.network.routers3.throttle1.msg_bytes.Writeback_Control::0         1304                      
system.ruby.network.routers4.throttle0.link_utilization            0                      
system.ruby.network.routers4.throttle1.link_utilization            0                      
system.ruby.network.routers5.throttle0.link_utilization            0                      
system.ruby.network.routers5.throttle1.link_utilization            0                      
system.ruby.network.routers6.throttle0.link_utilization     0.270208                      
system.ruby.network.routers6.throttle0.msg_count.Control::0        15821                      
system.ruby.network.routers6.throttle0.msg_count.Response_Data::1        15786                      
system.ruby.network.routers6.throttle0.msg_count.Response_Control::2        15821                      
system.ruby.network.routers6.throttle0.msg_count.Writeback_Data::0         4394                      
system.ruby.network.routers6.throttle0.msg_count.Writeback_Control::0          163                      
system.ruby.network.routers6.throttle0.msg_bytes.Control::0       126568                      
system.ruby.network.routers6.throttle0.msg_bytes.Response_Data::1      1136592                      
system.ruby.network.routers6.throttle0.msg_bytes.Response_Control::2       126568                      
system.ruby.network.routers6.throttle0.msg_bytes.Writeback_Data::0       316368                      
system.ruby.network.routers6.throttle0.msg_bytes.Writeback_Control::0         1304                      
system.ruby.network.routers6.throttle1.link_utilization     0.206028                      
system.ruby.network.routers6.throttle1.msg_count.Control::0        15786                      
system.ruby.network.routers6.throttle1.msg_count.Response_Data::1        15821                      
system.ruby.network.routers6.throttle1.msg_count.Response_Control::1         4557                      
system.ruby.network.routers6.throttle1.msg_bytes.Control::0       126288                      
system.ruby.network.routers6.throttle1.msg_bytes.Response_Data::1      1139112                      
system.ruby.network.routers6.throttle1.msg_bytes.Response_Control::1        36456                      
system.ruby.network.routers7.throttle0.link_utilization     0.019986                      
system.ruby.network.routers7.throttle0.msg_count.Control::0        15786                      
system.ruby.network.routers7.throttle0.msg_bytes.Control::0       126288                      
system.ruby.network.routers7.throttle1.link_utilization     0.179874                      
system.ruby.network.routers7.throttle1.msg_count.Response_Data::1        15786                      
system.ruby.network.routers7.throttle1.msg_bytes.Response_Data::1      1136592                      
system.ruby.network.routers8.throttle0.link_utilization            0                      
system.ruby.network.routers8.throttle1.link_utilization            0                      
system.ruby.network.routers8.throttle2.link_utilization            0                      
system.ruby.network.routers8.throttle3.link_utilization     0.186042                      
system.ruby.network.routers8.throttle3.msg_count.Response_Data::1        15821                      
system.ruby.network.routers8.throttle3.msg_count.Response_Control::1         4557                      
system.ruby.network.routers8.throttle3.msg_bytes.Response_Data::1      1139112                      
system.ruby.network.routers8.throttle3.msg_bytes.Response_Control::1        36456                      
system.ruby.network.routers8.throttle4.link_utilization            0                      
system.ruby.network.routers8.throttle5.link_utilization            0                      
system.ruby.network.routers8.throttle6.link_utilization     0.270208                      
system.ruby.network.routers8.throttle6.msg_count.Control::0        15821                      
system.ruby.network.routers8.throttle6.msg_count.Response_Data::1        15786                      
system.ruby.network.routers8.throttle6.msg_count.Response_Control::2        15821                      
system.ruby.network.routers8.throttle6.msg_count.Writeback_Data::0         4394                      
system.ruby.network.routers8.throttle6.msg_count.Writeback_Control::0          163                      
system.ruby.network.routers8.throttle6.msg_bytes.Control::0       126568                      
system.ruby.network.routers8.throttle6.msg_bytes.Response_Data::1      1136592                      
system.ruby.network.routers8.throttle6.msg_bytes.Response_Control::2       126568                      
system.ruby.network.routers8.throttle6.msg_bytes.Writeback_Data::0       316368                      
system.ruby.network.routers8.throttle6.msg_bytes.Writeback_Control::0         1304                      
system.ruby.network.routers8.throttle7.link_utilization     0.019986                      
system.ruby.network.routers8.throttle7.msg_count.Control::0        15786                      
system.ruby.network.routers8.throttle7.msg_bytes.Control::0       126288                      
system.ruby.delayVCHist.vnet_0::bucket_size            1                       # delay histogram for vnet_0
system.ruby.delayVCHist.vnet_0::max_bucket            9                       # delay histogram for vnet_0
system.ruby.delayVCHist.vnet_0::samples         36199                       # delay histogram for vnet_0
system.ruby.delayVCHist.vnet_0::mean         0.971077                       # delay histogram for vnet_0
system.ruby.delayVCHist.vnet_0::stdev        2.612625                       # delay histogram for vnet_0
system.ruby.delayVCHist.vnet_0           |       31805     87.86%     87.86% |           0      0.00%     87.86% |           0      0.00%     87.86% |           0      0.00%     87.86% |           0      0.00%     87.86% |           0      0.00%     87.86% |           0      0.00%     87.86% |           0      0.00%     87.86% |        4394     12.14%    100.00% |           0      0.00%    100.00% # delay histogram for vnet_0
system.ruby.delayVCHist.vnet_0::total           36199                       # delay histogram for vnet_0
system.ruby.delayVCHist.vnet_1::bucket_size            1                       # delay histogram for vnet_1
system.ruby.delayVCHist.vnet_1::max_bucket            9                       # delay histogram for vnet_1
system.ruby.delayVCHist.vnet_1::samples         52023                       # delay histogram for vnet_1
system.ruby.delayVCHist.vnet_1           |       52023    100.00%    100.00% |           0      0.00%    100.00% |           0      0.00%    100.00% |           0      0.00%    100.00% |           0      0.00%    100.00% |           0      0.00%    100.00% |           0      0.00%    100.00% |           0      0.00%    100.00% |           0      0.00%    100.00% |           0      0.00%    100.00% # delay histogram for vnet_1
system.ruby.delayVCHist.vnet_1::total           52023                       # delay histogram for vnet_1
system.ruby.delayVCHist.vnet_2::bucket_size            1                       # delay histogram for vnet_2
system.ruby.delayVCHist.vnet_2::max_bucket            9                       # delay histogram for vnet_2
system.ruby.delayVCHist.vnet_2::samples           812                       # delay histogram for vnet_2
system.ruby.delayVCHist.vnet_2           |         812    100.00%    100.00% |           0      0.00%    100.00% |           0      0.00%    100.00% |           0      0.00%    100.00% |           0      0.00%    100.00% |           0      0.00%    100.00% |           0      0.00%    100.00% |           0      0.00%    100.00% |           0      0.00%    100.00% |           0      0.00%    100.00% # delay histogram for vnet_2
system.ruby.delayVCHist.vnet_2::total             812                       # delay histogram for vnet_2
system.ruby.LD.latency_hist::bucket_size           64                      
system.ruby.LD.latency_hist::max_bucket           639                      
system.ruby.LD.latency_hist::samples          2464188                      
system.ruby.LD.latency_hist::mean            1.011024                      
system.ruby.LD.latency_hist::gmean           1.000414                      
system.ruby.LD.latency_hist::stdev           1.290359                      
system.ruby.LD.latency_hist              |     2463993     99.99%     99.99% |         101      0.00%    100.00% |          92      0.00%    100.00% |           0      0.00%    100.00% |           0      0.00%    100.00% |           0      0.00%    100.00% |           1      0.00%    100.00% |           0      0.00%    100.00% |           0      0.00%    100.00% |           1      0.00%    100.00%
system.ruby.LD.latency_hist::total            2464188                      
system.ruby.LD.hit_latency_hist::bucket_size           64                      
system.ruby.LD.hit_latency_hist::max_bucket          639                      
system.ruby.LD.hit_latency_hist::samples      2464188                      
system.ruby.LD.hit_latency_hist::mean        1.011024                      
system.ruby.LD.hit_latency_hist::gmean       1.000414                      
system.ruby.LD.hit_latency_hist::stdev       1.290359                      
system.ruby.LD.hit_latency_hist          |     2463993     99.99%     99.99% |         101      0.00%    100.00% |          92      0.00%    100.00% |           0      0.00%    100.00% |           0      0.00%    100.00% |           0      0.00%    100.00% |           1      0.00%    100.00% |           0      0.00%    100.00% |           0      0.00%    100.00% |           1      0.00%    100.00%
system.ruby.LD.hit_latency_hist::total        2464188                      
system.ruby.ST.latency_hist::bucket_size          128                      
system.ruby.ST.latency_hist::max_bucket          1279                      
system.ruby.ST.latency_hist::samples          1473068                      
system.ruby.ST.latency_hist::mean            2.311098                      
system.ruby.ST.latency_hist::gmean           1.049587                      
system.ruby.ST.latency_hist::stdev          14.644051                      
system.ruby.ST.latency_hist              |     1470287     99.81%     99.81% |        2340      0.16%     99.97% |         144      0.01%     99.98% |          70      0.00%     99.98% |         164      0.01%    100.00% |          63      0.00%    100.00% |           0      0.00%    100.00% |           0      0.00%    100.00% |           0      0.00%    100.00% |           0      0.00%    100.00%
system.ruby.ST.latency_hist::total            1473068                      
system.ruby.ST.hit_latency_hist::bucket_size          128                      
system.ruby.ST.hit_latency_hist::max_bucket         1279                      
system.ruby.ST.hit_latency_hist::samples      1473068                      
system.ruby.ST.hit_latency_hist::mean        2.311098                      
system.ruby.ST.hit_latency_hist::gmean       1.049587                      
system.ruby.ST.hit_latency_hist::stdev      14.644051                      
system.ruby.ST.hit_latency_hist          |     1470287     99.81%     99.81% |        2340      0.16%     99.97% |         144      0.01%     99.98% |          70      0.00%     99.98% |         164      0.01%    100.00% |          63      0.00%    100.00% |           0      0.00%    100.00% |           0      0.00%    100.00% |           0      0.00%    100.00% |           0      0.00%    100.00%
system.ruby.ST.hit_latency_hist::total        1473068                      
system.ruby.IFETCH.latency_hist::bucket_size          128                      
system.ruby.IFETCH.latency_hist::max_bucket         1279                      
system.ruby.IFETCH.latency_hist::samples     14072317                      
system.ruby.IFETCH.latency_hist::mean        1.007693                      
system.ruby.IFETCH.latency_hist::gmean       1.000295                      
system.ruby.IFETCH.latency_hist::stdev       1.083070                      
system.ruby.IFETCH.latency_hist          |    14072138    100.00%    100.00% |         167      0.00%    100.00% |           1      0.00%    100.00% |           0      0.00%    100.00% |           8      0.00%    100.00% |           3      0.00%    100.00% |           0      0.00%    100.00% |           0      0.00%    100.00% |           0      0.00%    100.00% |           0      0.00%    100.00%
system.ruby.IFETCH.latency_hist::total       14072317                      
system.ruby.IFETCH.hit_latency_hist::bucket_size          128                      
system.ruby.IFETCH.hit_latency_hist::max_bucket         1279                      
system.ruby.IFETCH.hit_latency_hist::samples     14072317                      
system.ruby.IFETCH.hit_latency_hist::mean     1.007693                      
system.ruby.IFETCH.hit_latency_hist::gmean     1.000295                      
system.ruby.IFETCH.hit_latency_hist::stdev     1.083070                      
system.ruby.IFETCH.hit_latency_hist      |    14072138    100.00%    100.00% |         167      0.00%    100.00% |           1      0.00%    100.00% |           0      0.00%    100.00% |           8      0.00%    100.00% |           3      0.00%    100.00% |           0      0.00%    100.00% |           0      0.00%    100.00% |           0      0.00%    100.00% |           0      0.00%    100.00%
system.ruby.IFETCH.hit_latency_hist::total     14072317                      
system.ruby.RMW_Read.latency_hist::bucket_size           16                      
system.ruby.RMW_Read.latency_hist::max_bucket          159                      
system.ruby.RMW_Read.latency_hist::samples          146                      
system.ruby.RMW_Read.latency_hist::mean      1.965753                      
system.ruby.RMW_Read.latency_hist::gmean     1.034527                      
system.ruby.RMW_Read.latency_hist::stdev    11.669243                      
system.ruby.RMW_Read.latency_hist        |         145     99.32%     99.32% |           0      0.00%     99.32% |           0      0.00%     99.32% |           0      0.00%     99.32% |           0      0.00%     99.32% |           0      0.00%     99.32% |           0      0.00%     99.32% |           0      0.00%     99.32% |           1      0.68%    100.00% |           0      0.00%    100.00%
system.ruby.RMW_Read.latency_hist::total          146                      
system.ruby.RMW_Read.hit_latency_hist::bucket_size           16                      
system.ruby.RMW_Read.hit_latency_hist::max_bucket          159                      
system.ruby.RMW_Read.hit_latency_hist::samples          146                      
system.ruby.RMW_Read.hit_latency_hist::mean     1.965753                      
system.ruby.RMW_Read.hit_latency_hist::gmean     1.034527                      
system.ruby.RMW_Read.hit_latency_hist::stdev    11.669243                      
system.ruby.RMW_Read.hit_latency_hist    |         145     99.32%     99.32% |           0      0.00%     99.32% |           0      0.00%     99.32% |           0      0.00%     99.32% |           0      0.00%     99.32% |           0      0.00%     99.32% |           0      0.00%     99.32% |           0      0.00%     99.32% |           1      0.68%    100.00% |           0      0.00%    100.00%
system.ruby.RMW_Read.hit_latency_hist::total          146                      
system.ruby.Locked_RMW_Read.latency_hist::bucket_size           32                      
system.ruby.Locked_RMW_Read.latency_hist::max_bucket          319                      
system.ruby.Locked_RMW_Read.latency_hist::samples       351535                      
system.ruby.Locked_RMW_Read.latency_hist::mean     1.000893                      
system.ruby.Locked_RMW_Read.latency_hist::gmean     1.000033                      
system.ruby.Locked_RMW_Read.latency_hist::stdev     0.371277                      
system.ruby.Locked_RMW_Read.latency_hist |      351533    100.00%    100.00% |           0      0.00%    100.00% |           0      0.00%    100.00% |           0      0.00%    100.00% |           1      0.00%    100.00% |           1      0.00%    100.00% |           0      0.00%    100.00% |           0      0.00%    100.00% |           0      0.00%    100.00% |           0      0.00%    100.00%
system.ruby.Locked_RMW_Read.latency_hist::total       351535                      
system.ruby.Locked_RMW_Read.hit_latency_hist::bucket_size           32                      
system.ruby.Locked_RMW_Read.hit_latency_hist::max_bucket          319                      
system.ruby.Locked_RMW_Read.hit_latency_hist::samples       351535                      
system.ruby.Locked_RMW_Read.hit_latency_hist::mean     1.000893                      
system.ruby.Locked_RMW_Read.hit_latency_hist::gmean     1.000033                      
system.ruby.Locked_RMW_Read.hit_latency_hist::stdev     0.371277                      
system.ruby.Locked_RMW_Read.hit_latency_hist |      351533    100.00%    100.00% |           0      0.00%    100.00% |           0      0.00%    100.00% |           0      0.00%    100.00% |           1      0.00%    100.00% |           1      0.00%    100.00% |           0      0.00%    100.00% |           0      0.00%    100.00% |           0      0.00%    100.00% |           0      0.00%    100.00%
system.ruby.Locked_RMW_Read.hit_latency_hist::total       351535                      
system.ruby.Locked_RMW_Write.latency_hist::bucket_size            1                      
system.ruby.Locked_RMW_Write.latency_hist::max_bucket            9                      
system.ruby.Locked_RMW_Write.latency_hist::samples       351535                      
system.ruby.Locked_RMW_Write.latency_hist::mean            1                      
system.ruby.Locked_RMW_Write.latency_hist::gmean            1                      
system.ruby.Locked_RMW_Write.latency_hist |           0      0.00%      0.00% |      351535    100.00%    100.00% |           0      0.00%    100.00% |           0      0.00%    100.00% |           0      0.00%    100.00% |           0      0.00%    100.00% |           0      0.00%    100.00% |           0      0.00%    100.00% |           0      0.00%    100.00% |           0      0.00%    100.00%
system.ruby.Locked_RMW_Write.latency_hist::total       351535                      
system.ruby.Locked_RMW_Write.hit_latency_hist::bucket_size            1                      
system.ruby.Locked_RMW_Write.hit_latency_hist::max_bucket            9                      
system.ruby.Locked_RMW_Write.hit_latency_hist::samples       351535                      
system.ruby.Locked_RMW_Write.hit_latency_hist::mean            1                      
system.ruby.Locked_RMW_Write.hit_latency_hist::gmean            1                      
system.ruby.Locked_RMW_Write.hit_latency_hist |           0      0.00%      0.00% |      351535    100.00%    100.00% |           0      0.00%    100.00% |           0      0.00%    100.00% |           0      0.00%    100.00% |           0      0.00%    100.00% |           0      0.00%    100.00% |           0      0.00%    100.00% |           0      0.00%    100.00% |           0      0.00%    100.00%
system.ruby.Locked_RMW_Write.hit_latency_hist::total       351535                      
system.ruby.Directory_Controller.Fetch          15786      0.00%      0.00%
system.ruby.Directory_Controller.Memory_Data        15786      0.00%      0.00%
system.ruby.Directory_Controller.I.Fetch        15786      0.00%      0.00%
system.ruby.Directory_Controller.IM.Memory_Data        15786      0.00%      0.00%
system.ruby.L0Cache_Controller.Load      |     2464188    100.00%    100.00% |           0      0.00%    100.00% |           0      0.00%    100.00%
system.ruby.L0Cache_Controller.Load::total      2464188                      
system.ruby.L0Cache_Controller.Ifetch    |    14072317    100.00%    100.00% |           0      0.00%    100.00% |           0      0.00%    100.00%
system.ruby.L0Cache_Controller.Ifetch::total     14072317                      
system.ruby.L0Cache_Controller.Store     |     2176284    100.00%    100.00% |           0      0.00%    100.00% |           0      0.00%    100.00%
system.ruby.L0Cache_Controller.Store::total      2176284                      
system.ruby.L0Cache_Controller.Inv       |         812    100.00%    100.00% |           0      0.00%    100.00% |           0      0.00%    100.00%
system.ruby.L0Cache_Controller.Inv::total          812                      
system.ruby.L0Cache_Controller.L0_Replacement |       13922    100.00%    100.00% |           0      0.00%    100.00% |           0      0.00%    100.00%
system.ruby.L0Cache_Controller.L0_Replacement::total        13922                      
system.ruby.L0Cache_Controller.Data_Exclusive |       15859    100.00%    100.00% |           0      0.00%    100.00% |           0      0.00%    100.00%
system.ruby.L0Cache_Controller.Data_Exclusive::total        15859                      
system.ruby.L0Cache_Controller.NP.Load   |         223    100.00%    100.00% |           0      0.00%    100.00% |           0      0.00%    100.00%
system.ruby.L0Cache_Controller.NP.Load::total          223                      
system.ruby.L0Cache_Controller.NP.Ifetch |         875    100.00%    100.00% |           0      0.00%    100.00% |           0      0.00%    100.00%
system.ruby.L0Cache_Controller.NP.Ifetch::total          875                      
system.ruby.L0Cache_Controller.NP.Store  |       14761    100.00%    100.00% |           0      0.00%    100.00% |           0      0.00%    100.00%
system.ruby.L0Cache_Controller.NP.Store::total        14761                      
system.ruby.L0Cache_Controller.E.Load    |      327288    100.00%    100.00% |           0      0.00%    100.00% |           0      0.00%    100.00%
system.ruby.L0Cache_Controller.E.Load::total       327288                      
system.ruby.L0Cache_Controller.E.Ifetch  |    14071442    100.00%    100.00% |           0      0.00%    100.00% |           0      0.00%    100.00%
system.ruby.L0Cache_Controller.E.Ifetch::total     14071442                      
system.ruby.L0Cache_Controller.E.Store   |          55    100.00%    100.00% |           0      0.00%    100.00% |           0      0.00%    100.00%
system.ruby.L0Cache_Controller.E.Store::total           55                      
system.ruby.L0Cache_Controller.E.Inv     |         772    100.00%    100.00% |           0      0.00%    100.00% |           0      0.00%    100.00%
system.ruby.L0Cache_Controller.E.Inv::total          772                      
system.ruby.L0Cache_Controller.E.L0_Replacement |         180    100.00%    100.00% |           0      0.00%    100.00% |           0      0.00%    100.00%
system.ruby.L0Cache_Controller.E.L0_Replacement::total          180                      
system.ruby.L0Cache_Controller.M.Load    |     2136677    100.00%    100.00% |           0      0.00%    100.00% |           0      0.00%    100.00%
system.ruby.L0Cache_Controller.M.Load::total      2136677                      
system.ruby.L0Cache_Controller.M.Store   |     2161468    100.00%    100.00% |           0      0.00%    100.00% |           0      0.00%    100.00%
system.ruby.L0Cache_Controller.M.Store::total      2161468                      
system.ruby.L0Cache_Controller.M.Inv     |          40    100.00%    100.00% |           0      0.00%    100.00% |           0      0.00%    100.00%
system.ruby.L0Cache_Controller.M.Inv::total           40                      
system.ruby.L0Cache_Controller.M.L0_Replacement |       13742    100.00%    100.00% |           0      0.00%    100.00% |           0      0.00%    100.00%
system.ruby.L0Cache_Controller.M.L0_Replacement::total        13742                      
system.ruby.L0Cache_Controller.IS.Data_Exclusive |        1098    100.00%    100.00% |           0      0.00%    100.00% |           0      0.00%    100.00%
system.ruby.L0Cache_Controller.IS.Data_Exclusive::total         1098                      
system.ruby.L0Cache_Controller.IM.Data_Exclusive |       14761    100.00%    100.00% |           0      0.00%    100.00% |           0      0.00%    100.00%
system.ruby.L0Cache_Controller.IM.Data_Exclusive::total        14761                      
system.ruby.L1Cache_Controller.Load      |        1098    100.00%    100.00% |           0      0.00%    100.00% |           0      0.00%    100.00%
system.ruby.L1Cache_Controller.Load::total         1098                      
system.ruby.L1Cache_Controller.Store     |       14761    100.00%    100.00% |           0      0.00%    100.00% |           0      0.00%    100.00%
system.ruby.L1Cache_Controller.Store::total        14761                      
system.ruby.L1Cache_Controller.WriteBack |       13922    100.00%    100.00% |           0      0.00%    100.00% |           0      0.00%    100.00%
system.ruby.L1Cache_Controller.WriteBack::total        13922                      
system.ruby.L1Cache_Controller.L0_DataAck |          40    100.00%    100.00% |           0      0.00%    100.00% |           0      0.00%    100.00%
system.ruby.L1Cache_Controller.L0_DataAck::total           40                      
system.ruby.L1Cache_Controller.L0_Invalidate_Own |        1624    100.00%    100.00% |           0      0.00%    100.00% |           0      0.00%    100.00%
system.ruby.L1Cache_Controller.L0_Invalidate_Own::total         1624                      
system.ruby.L1Cache_Controller.L1_Replacement |        4557    100.00%    100.00% |           0      0.00%    100.00% |           0      0.00%    100.00%
system.ruby.L1Cache_Controller.L1_Replacement::total         4557                      
system.ruby.L1Cache_Controller.Data_Exclusive |        1070    100.00%    100.00% |           0      0.00%    100.00% |           0      0.00%    100.00%
system.ruby.L1Cache_Controller.Data_Exclusive::total         1070                      
system.ruby.L1Cache_Controller.Data_all_Acks |       14751    100.00%    100.00% |           0      0.00%    100.00% |           0      0.00%    100.00%
system.ruby.L1Cache_Controller.Data_all_Acks::total        14751                      
system.ruby.L1Cache_Controller.L0_Ack    |         772    100.00%    100.00% |           0      0.00%    100.00% |           0      0.00%    100.00%
system.ruby.L1Cache_Controller.L0_Ack::total          772                      
system.ruby.L1Cache_Controller.WB_Ack    |        4557    100.00%    100.00% |           0      0.00%    100.00% |           0      0.00%    100.00%
system.ruby.L1Cache_Controller.WB_Ack::total         4557                      
system.ruby.L1Cache_Controller.NP.Load   |        1070    100.00%    100.00% |           0      0.00%    100.00% |           0      0.00%    100.00%
system.ruby.L1Cache_Controller.NP.Load::total         1070                      
system.ruby.L1Cache_Controller.NP.Store  |       14751    100.00%    100.00% |           0      0.00%    100.00% |           0      0.00%    100.00%
system.ruby.L1Cache_Controller.NP.Store::total        14751                      
system.ruby.L1Cache_Controller.E.WriteBack |         203    100.00%    100.00% |           0      0.00%    100.00% |           0      0.00%    100.00%
system.ruby.L1Cache_Controller.E.WriteBack::total          203                      
system.ruby.L1Cache_Controller.E.L0_Invalidate_Own |         770    100.00%    100.00% |           0      0.00%    100.00% |           0      0.00%    100.00%
system.ruby.L1Cache_Controller.E.L0_Invalidate_Own::total          770                      
system.ruby.L1Cache_Controller.EE.L1_Replacement |         753    100.00%    100.00% |           0      0.00%    100.00% |           0      0.00%    100.00%
system.ruby.L1Cache_Controller.EE.L1_Replacement::total          753                      
system.ruby.L1Cache_Controller.M.WriteBack |       13719    100.00%    100.00% |           0      0.00%    100.00% |           0      0.00%    100.00%
system.ruby.L1Cache_Controller.M.WriteBack::total        13719                      
system.ruby.L1Cache_Controller.M.L0_Invalidate_Own |          42    100.00%    100.00% |           0      0.00%    100.00% |           0      0.00%    100.00%
system.ruby.L1Cache_Controller.M.L0_Invalidate_Own::total           42                      
system.ruby.L1Cache_Controller.MM.Load   |          28    100.00%    100.00% |           0      0.00%    100.00% |           0      0.00%    100.00%
system.ruby.L1Cache_Controller.MM.Load::total           28                      
system.ruby.L1Cache_Controller.MM.Store  |          10    100.00%    100.00% |           0      0.00%    100.00% |           0      0.00%    100.00%
system.ruby.L1Cache_Controller.MM.Store::total           10                      
system.ruby.L1Cache_Controller.MM.L1_Replacement |        3804    100.00%    100.00% |           0      0.00%    100.00% |           0      0.00%    100.00%
system.ruby.L1Cache_Controller.MM.L1_Replacement::total         3804                      
system.ruby.L1Cache_Controller.IS.Data_Exclusive |        1070    100.00%    100.00% |           0      0.00%    100.00% |           0      0.00%    100.00%
system.ruby.L1Cache_Controller.IS.Data_Exclusive::total         1070                      
system.ruby.L1Cache_Controller.IM.Data_all_Acks |       14751    100.00%    100.00% |           0      0.00%    100.00% |           0      0.00%    100.00%
system.ruby.L1Cache_Controller.IM.Data_all_Acks::total        14751                      
system.ruby.L1Cache_Controller.M_I.WB_Ack |        4557    100.00%    100.00% |           0      0.00%    100.00% |           0      0.00%    100.00%
system.ruby.L1Cache_Controller.M_I.WB_Ack::total         4557                      
system.ruby.L1Cache_Controller.E_IL0.L0_DataAck |          17    100.00%    100.00% |           0      0.00%    100.00% |           0      0.00%    100.00%
system.ruby.L1Cache_Controller.E_IL0.L0_DataAck::total           17                      
system.ruby.L1Cache_Controller.E_IL0.L0_Invalidate_Own |         770    100.00%    100.00% |           0      0.00%    100.00% |           0      0.00%    100.00%
system.ruby.L1Cache_Controller.E_IL0.L0_Invalidate_Own::total          770                      
system.ruby.L1Cache_Controller.E_IL0.L0_Ack |         753    100.00%    100.00% |           0      0.00%    100.00% |           0      0.00%    100.00%
system.ruby.L1Cache_Controller.E_IL0.L0_Ack::total          753                      
system.ruby.L1Cache_Controller.M_IL0.L0_DataAck |          23    100.00%    100.00% |           0      0.00%    100.00% |           0      0.00%    100.00%
system.ruby.L1Cache_Controller.M_IL0.L0_DataAck::total           23                      
system.ruby.L1Cache_Controller.M_IL0.L0_Invalidate_Own |          42    100.00%    100.00% |           0      0.00%    100.00% |           0      0.00%    100.00%
system.ruby.L1Cache_Controller.M_IL0.L0_Invalidate_Own::total           42                      
system.ruby.L1Cache_Controller.M_IL0.L0_Ack |          19    100.00%    100.00% |           0      0.00%    100.00% |           0      0.00%    100.00%
system.ruby.L1Cache_Controller.M_IL0.L0_Ack::total           19                      
system.ruby.L2Cache_Controller.L1_GETS           1070      0.00%      0.00%
system.ruby.L2Cache_Controller.L1_GETX          14751      0.00%      0.00%
system.ruby.L2Cache_Controller.L1_PUTX           4557      0.00%      0.00%
system.ruby.L2Cache_Controller.Mem_Data         15786      0.00%      0.00%
system.ruby.L2Cache_Controller.Exclusive_Unblock        15821      0.00%      0.00%
system.ruby.L2Cache_Controller.NP.L1_GETS         1038      0.00%      0.00%
system.ruby.L2Cache_Controller.NP.L1_GETX        14748      0.00%      0.00%
system.ruby.L2Cache_Controller.M.L1_GETS           32      0.00%      0.00%
system.ruby.L2Cache_Controller.M.L1_GETX            3      0.00%      0.00%
system.ruby.L2Cache_Controller.MT.L1_PUTX         4557      0.00%      0.00%
system.ruby.L2Cache_Controller.ISS.Mem_Data         1038      0.00%      0.00%
system.ruby.L2Cache_Controller.IM.Mem_Data        14748      0.00%      0.00%
system.ruby.L2Cache_Controller.MT_MB.Exclusive_Unblock        15821      0.00%      0.00%

---------- End Simulation Statistics   ----------
