
---------- Begin Simulation Statistics ----------
sim_seconds                                  2.912332                       # Number of seconds simulated
sim_ticks                                2912332413000                       # Number of ticks simulated
final_tick                               2912332413000                       # Number of ticks from beginning of simulation (restored from checkpoints and never reset)
sim_freq                                 1000000000000                       # Frequency of simulated ticks
host_inst_rate                                 125950                       # Simulator instruction rate (inst/s)
host_op_rate                                   348285                       # Simulator op (including micro ops) rate (op/s)
host_tick_rate                              210862069                       # Simulator tick rate (ticks/s)
host_mem_usage                                3397500                       # Number of bytes of host memory used
host_seconds                                 13811.55                       # Real time elapsed on the host
sim_insts                                  1739568048                       # Number of instructions simulated
sim_ops                                    4810356494                       # Number of ops (including micro ops) simulated
system.voltage_domain.voltage                       1                       # Voltage in Volts
system.clk_domain.clock                          1000                       # Clock period in ticks
system.mem_ctrls.bytes_read::ruby.dir_cntrl0    244179008                       # Number of bytes read from this memory
system.mem_ctrls.bytes_read::total          244179008                       # Number of bytes read from this memory
system.mem_ctrls.bytes_written::ruby.dir_cntrl0    117085760                       # Number of bytes written to this memory
system.mem_ctrls.bytes_written::total       117085760                       # Number of bytes written to this memory
system.mem_ctrls.num_reads::ruby.dir_cntrl0      3815297                       # Number of read requests responded to by this memory
system.mem_ctrls.num_reads::total             3815297                       # Number of read requests responded to by this memory
system.mem_ctrls.num_writes::ruby.dir_cntrl0      1829465                       # Number of write requests responded to by this memory
system.mem_ctrls.num_writes::total            1829465                       # Number of write requests responded to by this memory
system.mem_ctrls.bw_read::ruby.dir_cntrl0     83843110                       # Total read bandwidth from this memory (bytes/s)
system.mem_ctrls.bw_read::total              83843110                       # Total read bandwidth from this memory (bytes/s)
system.mem_ctrls.bw_write::ruby.dir_cntrl0     40203433                       # Write bandwidth from this memory (bytes/s)
system.mem_ctrls.bw_write::total             40203433                       # Write bandwidth from this memory (bytes/s)
system.mem_ctrls.bw_total::ruby.dir_cntrl0    124046543                       # Total bandwidth to/from this memory (bytes/s)
system.mem_ctrls.bw_total::total            124046543                       # Total bandwidth to/from this memory (bytes/s)
system.mem_ctrls.memReq                       5644762                       # Total number of memory requests
system.mem_ctrls.memRead                      3815297                       # Number of memory reads
system.mem_ctrls.memWrite                     1829465                       # Number of memory writes
system.mem_ctrls.memRefresh                  37065147                       # Number of memory refreshes
system.mem_ctrls.memWaitCycles               14729280                       # Delay stalled at the head of the bank queue
system.mem_ctrls.memInputQ                       1008                       # Delay in the input queue
system.mem_ctrls.memBankQ                       68857                       # Delay behind the head of the bank queue
system.mem_ctrls.totalStalls                 14799145                       # Total number of stall cycles
system.mem_ctrls.stallsPerReq                2.621748                       # Expected number of stall cycles per request
system.mem_ctrls.memBankBusy                 14602846                       # memory stalls due to busy bank
system.mem_ctrls.memBusBusy                     92474                       # memory stalls due to busy bus
system.mem_ctrls.memReadWriteBusy                1098                       # memory stalls due to read write turnaround
system.mem_ctrls.memDataBusBusy                  3769                       # memory stalls due to read read turnaround
system.mem_ctrls.memArbWait                     29093                       # memory stalls due to arbitration
system.mem_ctrls.memBankCount            |      176465      3.13%      3.13% |      176680      3.13%      6.26% |      176964      3.14%      9.39% |      175815      3.11%     12.51% |      176627      3.13%     15.63% |      175453      3.11%     18.74% |      176999      3.14%     21.88% |      177785      3.15%     25.03% |      176522      3.13%     28.16% |      175760      3.11%     31.27% |      175370      3.11%     34.38% |      175326      3.11%     37.48% |      175009      3.10%     40.58% |      173670      3.08%     43.66% |      173629      3.08%     46.73% |      174838      3.10%     49.83% |      176955      3.13%     52.97% |      176662      3.13%     56.10% |      176311      3.12%     59.22% |      175461      3.11%     62.33% |      177459      3.14%     65.47% |      176983      3.14%     68.61% |      176007      3.12%     71.73% |      177899      3.15%     74.88% |      177271      3.14%     78.02% |      178343      3.16%     81.18% |      177360      3.14%     84.32% |      177572      3.15%     87.47% |      176320      3.12%     90.59% |      176605      3.13%     93.72% |      176963      3.13%     96.85% |      177679      3.15%    100.00% # Number of accesses per bank
system.mem_ctrls.memBankCount::total          5644762                       # Number of accesses per bank
system.cpu_voltage_domain.voltage                   1                       # Voltage in Volts
system.cpu_clk_domain.clock                       500                       # Clock period in ticks
system.cpu0.apic_clk_domain.clock                8000                       # Clock period in ticks
system.cpu0.workload.num_syscalls                 110                       # Number of system calls
system.cpu0.numCycles                      5824664826                       # number of cpu cycles simulated
system.cpu0.numWorkItemsStarted                     0                       # number of work items this cpu started
system.cpu0.numWorkItemsCompleted                   0                       # number of work items this cpu completed
system.cpu0.committedInsts                 1623413584                       # Number of instructions committed
system.cpu0.committedOps                   4578060104                       # Number of ops (including micro ops) committed
system.cpu0.num_int_alu_accesses           4321876485                       # Number of integer alu accesses
system.cpu0.num_fp_alu_accesses             108341154                       # Number of float alu accesses
system.cpu0.num_func_calls                  152159734                       # number of times a function call or return occured
system.cpu0.num_conditional_control_insts    357676561                       # number of instructions that are conditional controls
system.cpu0.num_int_insts                  4321876485                       # number of integer instructions
system.cpu0.num_fp_insts                    108341154                       # number of float instructions
system.cpu0.num_int_register_reads         9115518602                       # number of times the integer registers were read
system.cpu0.num_int_register_writes        4289197326                       # number of times the integer registers were written
system.cpu0.num_fp_register_reads           174106828                       # number of times the floating registers were read
system.cpu0.num_fp_register_writes           85151978                       # number of times the floating registers were written
system.cpu0.num_cc_register_reads          3660974923                       # number of times the CC registers were read
system.cpu0.num_cc_register_writes         1370120487                       # number of times the CC registers were written
system.cpu0.num_mem_refs                    714002917                       # number of memory refs
system.cpu0.num_load_insts                  435212430                       # Number of load instructions
system.cpu0.num_store_insts                 278790487                       # Number of store instructions
system.cpu0.num_idle_cycles                  0.002000                       # Number of idle cycles
system.cpu0.num_busy_cycles              5824664825.998000                       # Number of busy cycles
system.cpu0.not_idle_fraction                1.000000                       # Percentage of non-idle cycles
system.cpu0.idle_fraction                    0.000000                       # Percentage of idle cycles
system.cpu0.Branches                        582834594                       # Number of branches fetched
system.cpu0.op_class::No_OpClass             88981569      1.94%      1.94% # Class of executed instruction
system.cpu0.op_class::IntAlu               3309887546     72.30%     74.24% # Class of executed instruction
system.cpu0.op_class::IntMult                     349      0.00%     74.24% # Class of executed instruction
system.cpu0.op_class::IntDiv                380036492      8.30%     82.54% # Class of executed instruction
system.cpu0.op_class::FloatAdd               85151231      1.86%     84.40% # Class of executed instruction
system.cpu0.op_class::FloatCmp                      0      0.00%     84.40% # Class of executed instruction
system.cpu0.op_class::FloatCvt                      0      0.00%     84.40% # Class of executed instruction
system.cpu0.op_class::FloatMult                     0      0.00%     84.40% # Class of executed instruction
system.cpu0.op_class::FloatDiv                      0      0.00%     84.40% # Class of executed instruction
system.cpu0.op_class::FloatSqrt                     0      0.00%     84.40% # Class of executed instruction
system.cpu0.op_class::SimdAdd                       0      0.00%     84.40% # Class of executed instruction
system.cpu0.op_class::SimdAddAcc                    0      0.00%     84.40% # Class of executed instruction
system.cpu0.op_class::SimdAlu                       0      0.00%     84.40% # Class of executed instruction
system.cpu0.op_class::SimdCmp                       0      0.00%     84.40% # Class of executed instruction
system.cpu0.op_class::SimdCvt                       0      0.00%     84.40% # Class of executed instruction
system.cpu0.op_class::SimdMisc                      0      0.00%     84.40% # Class of executed instruction
system.cpu0.op_class::SimdMult                      0      0.00%     84.40% # Class of executed instruction
system.cpu0.op_class::SimdMultAcc                   0      0.00%     84.40% # Class of executed instruction
system.cpu0.op_class::SimdShift                     0      0.00%     84.40% # Class of executed instruction
system.cpu0.op_class::SimdShiftAcc                  0      0.00%     84.40% # Class of executed instruction
system.cpu0.op_class::SimdSqrt                      0      0.00%     84.40% # Class of executed instruction
system.cpu0.op_class::SimdFloatAdd                  0      0.00%     84.40% # Class of executed instruction
system.cpu0.op_class::SimdFloatAlu                  0      0.00%     84.40% # Class of executed instruction
system.cpu0.op_class::SimdFloatCmp                  0      0.00%     84.40% # Class of executed instruction
system.cpu0.op_class::SimdFloatCvt                  0      0.00%     84.40% # Class of executed instruction
system.cpu0.op_class::SimdFloatDiv                  0      0.00%     84.40% # Class of executed instruction
system.cpu0.op_class::SimdFloatMisc                 0      0.00%     84.40% # Class of executed instruction
system.cpu0.op_class::SimdFloatMult                 0      0.00%     84.40% # Class of executed instruction
system.cpu0.op_class::SimdFloatMultAcc              0      0.00%     84.40% # Class of executed instruction
system.cpu0.op_class::SimdFloatSqrt                 0      0.00%     84.40% # Class of executed instruction
system.cpu0.op_class::MemRead               435212430      9.51%     93.91% # Class of executed instruction
system.cpu0.op_class::MemWrite              278790487      6.09%    100.00% # Class of executed instruction
system.cpu0.op_class::IprAccess                     0      0.00%    100.00% # Class of executed instruction
system.cpu0.op_class::InstPrefetch                  0      0.00%    100.00% # Class of executed instruction
system.cpu0.op_class::total                4578060104                       # Class of executed instruction
system.cpu1.apic_clk_domain.clock                8000                       # Clock period in ticks
system.cpu1.numCycles                      5824429452                       # number of cpu cycles simulated
system.cpu1.numWorkItemsStarted                     0                       # number of work items this cpu started
system.cpu1.numWorkItemsCompleted                   0                       # number of work items this cpu completed
system.cpu1.committedInsts                   58077232                       # Number of instructions committed
system.cpu1.committedOps                    116148195                       # Number of ops (including micro ops) committed
system.cpu1.num_int_alu_accesses             87175319                       # Number of integer alu accesses
system.cpu1.num_fp_alu_accesses              56894279                       # Number of float alu accesses
system.cpu1.num_func_calls                     161815                       # number of times a function call or return occured
system.cpu1.num_conditional_control_insts      7134452                       # number of instructions that are conditional controls
system.cpu1.num_int_insts                    87175319                       # number of integer instructions
system.cpu1.num_fp_insts                     56894279                       # number of float instructions
system.cpu1.num_int_register_reads          153196448                       # number of times the integer registers were read
system.cpu1.num_int_register_writes          52032168                       # number of times the integer registers were written
system.cpu1.num_fp_register_reads            86190677                       # number of times the floating registers were read
system.cpu1.num_fp_register_writes           56813392                       # number of times the floating registers were written
system.cpu1.num_cc_register_reads            42887640                       # number of times the CC registers were read
system.cpu1.num_cc_register_writes           42862530                       # number of times the CC registers were written
system.cpu1.num_mem_refs                     28338623                       # number of memory refs
system.cpu1.num_load_insts                   28176742                       # Number of load instructions
system.cpu1.num_store_insts                    161881                       # Number of store instructions
system.cpu1.num_idle_cycles              5539979773.041678                       # Number of idle cycles
system.cpu1.num_busy_cycles              284449678.958322                       # Number of busy cycles
system.cpu1.not_idle_fraction                0.048837                       # Percentage of non-idle cycles
system.cpu1.idle_fraction                    0.951163                       # Percentage of idle cycles
system.cpu1.Branches                          7383422                       # Number of branches fetched
system.cpu1.op_class::No_OpClass                    2      0.00%      0.00% # Class of executed instruction
system.cpu1.op_class::IntAlu                 58594024     50.45%     50.45% # Class of executed instruction
system.cpu1.op_class::IntMult                  242657      0.21%     50.66% # Class of executed instruction
system.cpu1.op_class::IntDiv                       14      0.00%     50.66% # Class of executed instruction
system.cpu1.op_class::FloatAdd               28972875     24.94%     75.60% # Class of executed instruction
system.cpu1.op_class::FloatCmp                      0      0.00%     75.60% # Class of executed instruction
system.cpu1.op_class::FloatCvt                      0      0.00%     75.60% # Class of executed instruction
system.cpu1.op_class::FloatMult                     0      0.00%     75.60% # Class of executed instruction
system.cpu1.op_class::FloatDiv                      0      0.00%     75.60% # Class of executed instruction
system.cpu1.op_class::FloatSqrt                     0      0.00%     75.60% # Class of executed instruction
system.cpu1.op_class::SimdAdd                       0      0.00%     75.60% # Class of executed instruction
system.cpu1.op_class::SimdAddAcc                    0      0.00%     75.60% # Class of executed instruction
system.cpu1.op_class::SimdAlu                       0      0.00%     75.60% # Class of executed instruction
system.cpu1.op_class::SimdCmp                       0      0.00%     75.60% # Class of executed instruction
system.cpu1.op_class::SimdCvt                       0      0.00%     75.60% # Class of executed instruction
system.cpu1.op_class::SimdMisc                      0      0.00%     75.60% # Class of executed instruction
system.cpu1.op_class::SimdMult                      0      0.00%     75.60% # Class of executed instruction
system.cpu1.op_class::SimdMultAcc                   0      0.00%     75.60% # Class of executed instruction
system.cpu1.op_class::SimdShift                     0      0.00%     75.60% # Class of executed instruction
system.cpu1.op_class::SimdShiftAcc                  0      0.00%     75.60% # Class of executed instruction
system.cpu1.op_class::SimdSqrt                      0      0.00%     75.60% # Class of executed instruction
system.cpu1.op_class::SimdFloatAdd                  0      0.00%     75.60% # Class of executed instruction
system.cpu1.op_class::SimdFloatAlu                  0      0.00%     75.60% # Class of executed instruction
system.cpu1.op_class::SimdFloatCmp                  0      0.00%     75.60% # Class of executed instruction
system.cpu1.op_class::SimdFloatCvt                  0      0.00%     75.60% # Class of executed instruction
system.cpu1.op_class::SimdFloatDiv                  0      0.00%     75.60% # Class of executed instruction
system.cpu1.op_class::SimdFloatMisc                 0      0.00%     75.60% # Class of executed instruction
system.cpu1.op_class::SimdFloatMult                 0      0.00%     75.60% # Class of executed instruction
system.cpu1.op_class::SimdFloatMultAcc              0      0.00%     75.60% # Class of executed instruction
system.cpu1.op_class::SimdFloatSqrt                 0      0.00%     75.60% # Class of executed instruction
system.cpu1.op_class::MemRead                28176742     24.26%     99.86% # Class of executed instruction
system.cpu1.op_class::MemWrite                 161881      0.14%    100.00% # Class of executed instruction
system.cpu1.op_class::IprAccess                     0      0.00%    100.00% # Class of executed instruction
system.cpu1.op_class::InstPrefetch                  0      0.00%    100.00% # Class of executed instruction
system.cpu1.op_class::total                 116148195                       # Class of executed instruction
system.cpu2.apic_clk_domain.clock                8000                       # Clock period in ticks
system.cpu2.numCycles                      5804937218                       # number of cpu cycles simulated
system.cpu2.numWorkItemsStarted                     0                       # number of work items this cpu started
system.cpu2.numWorkItemsCompleted                   0                       # number of work items this cpu completed
system.cpu2.committedInsts                   58077232                       # Number of instructions committed
system.cpu2.committedOps                    116148195                       # Number of ops (including micro ops) committed
system.cpu2.num_int_alu_accesses             87175319                       # Number of integer alu accesses
system.cpu2.num_fp_alu_accesses              56894279                       # Number of float alu accesses
system.cpu2.num_func_calls                     161815                       # number of times a function call or return occured
system.cpu2.num_conditional_control_insts      7134452                       # number of instructions that are conditional controls
system.cpu2.num_int_insts                    87175319                       # number of integer instructions
system.cpu2.num_fp_insts                     56894279                       # number of float instructions
system.cpu2.num_int_register_reads          153196448                       # number of times the integer registers were read
system.cpu2.num_int_register_writes          52032168                       # number of times the integer registers were written
system.cpu2.num_fp_register_reads            86190677                       # number of times the floating registers were read
system.cpu2.num_fp_register_writes           56813392                       # number of times the floating registers were written
system.cpu2.num_cc_register_reads            42887640                       # number of times the CC registers were read
system.cpu2.num_cc_register_writes           42862530                       # number of times the CC registers were written
system.cpu2.num_mem_refs                     28338623                       # number of memory refs
system.cpu2.num_load_insts                   28176742                       # Number of load instructions
system.cpu2.num_store_insts                    161881                       # Number of store instructions
system.cpu2.num_idle_cycles              5540866179.990458                       # Number of idle cycles
system.cpu2.num_busy_cycles              264071038.009542                       # Number of busy cycles
system.cpu2.not_idle_fraction                0.045491                       # Percentage of non-idle cycles
system.cpu2.idle_fraction                    0.954509                       # Percentage of idle cycles
system.cpu2.Branches                          7383422                       # Number of branches fetched
system.cpu2.op_class::No_OpClass                    2      0.00%      0.00% # Class of executed instruction
system.cpu2.op_class::IntAlu                 58594024     50.45%     50.45% # Class of executed instruction
system.cpu2.op_class::IntMult                  242657      0.21%     50.66% # Class of executed instruction
system.cpu2.op_class::IntDiv                       14      0.00%     50.66% # Class of executed instruction
system.cpu2.op_class::FloatAdd               28972875     24.94%     75.60% # Class of executed instruction
system.cpu2.op_class::FloatCmp                      0      0.00%     75.60% # Class of executed instruction
system.cpu2.op_class::FloatCvt                      0      0.00%     75.60% # Class of executed instruction
system.cpu2.op_class::FloatMult                     0      0.00%     75.60% # Class of executed instruction
system.cpu2.op_class::FloatDiv                      0      0.00%     75.60% # Class of executed instruction
system.cpu2.op_class::FloatSqrt                     0      0.00%     75.60% # Class of executed instruction
system.cpu2.op_class::SimdAdd                       0      0.00%     75.60% # Class of executed instruction
system.cpu2.op_class::SimdAddAcc                    0      0.00%     75.60% # Class of executed instruction
system.cpu2.op_class::SimdAlu                       0      0.00%     75.60% # Class of executed instruction
system.cpu2.op_class::SimdCmp                       0      0.00%     75.60% # Class of executed instruction
system.cpu2.op_class::SimdCvt                       0      0.00%     75.60% # Class of executed instruction
system.cpu2.op_class::SimdMisc                      0      0.00%     75.60% # Class of executed instruction
system.cpu2.op_class::SimdMult                      0      0.00%     75.60% # Class of executed instruction
system.cpu2.op_class::SimdMultAcc                   0      0.00%     75.60% # Class of executed instruction
system.cpu2.op_class::SimdShift                     0      0.00%     75.60% # Class of executed instruction
system.cpu2.op_class::SimdShiftAcc                  0      0.00%     75.60% # Class of executed instruction
system.cpu2.op_class::SimdSqrt                      0      0.00%     75.60% # Class of executed instruction
system.cpu2.op_class::SimdFloatAdd                  0      0.00%     75.60% # Class of executed instruction
system.cpu2.op_class::SimdFloatAlu                  0      0.00%     75.60% # Class of executed instruction
system.cpu2.op_class::SimdFloatCmp                  0      0.00%     75.60% # Class of executed instruction
system.cpu2.op_class::SimdFloatCvt                  0      0.00%     75.60% # Class of executed instruction
system.cpu2.op_class::SimdFloatDiv                  0      0.00%     75.60% # Class of executed instruction
system.cpu2.op_class::SimdFloatMisc                 0      0.00%     75.60% # Class of executed instruction
system.cpu2.op_class::SimdFloatMult                 0      0.00%     75.60% # Class of executed instruction
system.cpu2.op_class::SimdFloatMultAcc              0      0.00%     75.60% # Class of executed instruction
system.cpu2.op_class::SimdFloatSqrt                 0      0.00%     75.60% # Class of executed instruction
system.cpu2.op_class::MemRead                28176742     24.26%     99.86% # Class of executed instruction
system.cpu2.op_class::MemWrite                 161881      0.14%    100.00% # Class of executed instruction
system.cpu2.op_class::IprAccess                     0      0.00%    100.00% # Class of executed instruction
system.cpu2.op_class::InstPrefetch                  0      0.00%    100.00% # Class of executed instruction
system.cpu2.op_class::total                 116148195                       # Class of executed instruction
system.ruby.clk_domain.clock                      500                       # Clock period in ticks
system.ruby.delayHist::bucket_size                  8                       # delay histogram for all message
system.ruby.delayHist::max_bucket                  79                       # delay histogram for all message
system.ruby.delayHist::samples               40595657                       # delay histogram for all message
system.ruby.delayHist::mean                  0.393408                       # delay histogram for all message
system.ruby.delayHist::stdev                 1.719042                       # delay histogram for all message
system.ruby.delayHist                    |    38689633     95.30%     95.30% |     1903390      4.69%     99.99% |        2572      0.01%    100.00% |          24      0.00%    100.00% |           6      0.00%    100.00% |          20      0.00%    100.00% |          10      0.00%    100.00% |           2      0.00%    100.00% |           0      0.00%    100.00% |           0      0.00%    100.00% # delay histogram for all message
system.ruby.delayHist::total                 40595657                       # delay histogram for all message
system.ruby.outstanding_req_hist::bucket_size            1                      
system.ruby.outstanding_req_hist::max_bucket            9                      
system.ruby.outstanding_req_hist::samples   3031769767                      
system.ruby.outstanding_req_hist::mean       1.000195                      
system.ruby.outstanding_req_hist::gmean      1.000135                      
system.ruby.outstanding_req_hist::stdev      0.013947                      
system.ruby.outstanding_req_hist         |           0      0.00%      0.00% |  3031179879     99.98%     99.98% |      589888      0.02%    100.00% |           0      0.00%    100.00% |           0      0.00%    100.00% |           0      0.00%    100.00% |           0      0.00%    100.00% |           0      0.00%    100.00% |           0      0.00%    100.00% |           0      0.00%    100.00%
system.ruby.outstanding_req_hist::total    3031769767                      
system.ruby.latency_hist::bucket_size              16                      
system.ruby.latency_hist::max_bucket              159                      
system.ruby.latency_hist::samples          3031769767                      
system.ruby.latency_hist::mean               1.102725                      
system.ruby.latency_hist::gmean              1.007232                      
system.ruby.latency_hist::stdev              2.652928                      
system.ruby.latency_hist                 |  3026328015     99.82%     99.82% |     1622769      0.05%     99.87% |        3668      0.00%     99.87% |     1689944      0.06%     99.93% |      669324      0.02%     99.95% |     1432602      0.05%    100.00% |       23307      0.00%    100.00% |         129      0.00%    100.00% |           9      0.00%    100.00% |           0      0.00%    100.00%
system.ruby.latency_hist::total            3031769767                      
system.ruby.hit_latency_hist::bucket_size           16                      
system.ruby.hit_latency_hist::max_bucket          159                      
system.ruby.hit_latency_hist::samples      3031769767                      
system.ruby.hit_latency_hist::mean           1.102725                      
system.ruby.hit_latency_hist::gmean          1.007232                      
system.ruby.hit_latency_hist::stdev          2.652928                      
system.ruby.hit_latency_hist             |  3026328015     99.82%     99.82% |     1622769      0.05%     99.87% |        3668      0.00%     99.87% |     1689944      0.06%     99.93% |      669324      0.02%     99.95% |     1432602      0.05%    100.00% |       23307      0.00%    100.00% |         129      0.00%    100.00% |           9      0.00%    100.00% |           0      0.00%    100.00%
system.ruby.hit_latency_hist::total        3031769767                      
system.ruby.l0_cntrl0.Dcache.demand_hits    711828447                       # Number of cache demand hits
system.ruby.l0_cntrl0.Dcache.demand_misses      2174534                       # Number of cache demand misses
system.ruby.l0_cntrl0.Dcache.demand_accesses    714002981                       # Number of cache demand accesses
system.ruby.l0_cntrl0.Icache.demand_hits   2111482922                       # Number of cache demand hits
system.ruby.l0_cntrl0.Icache.demand_misses         5414                       # Number of cache demand misses
system.ruby.l0_cntrl0.Icache.demand_accesses   2111488336                       # Number of cache demand accesses
system.ruby.l0_cntrl0.Zcache.demand_hits    126113785                       # Number of cache demand hits
system.ruby.l0_cntrl0.Zcache.demand_misses      1640975                       # Number of cache demand misses
system.ruby.l0_cntrl0.Zcache.demand_accesses    127754760                       # Number of cache demand accesses
system.ruby.l0_cntrl1.Dcache.demand_hits     26840987                       # Number of cache demand hits
system.ruby.l0_cntrl1.Dcache.demand_misses      1792548                       # Number of cache demand misses
system.ruby.l0_cntrl1.Dcache.demand_accesses     28633535                       # Number of cache demand accesses
system.ruby.l0_cntrl1.Icache.demand_hits     74503869                       # Number of cache demand hits
system.ruby.l0_cntrl1.Icache.demand_misses         1821                       # Number of cache demand misses
system.ruby.l0_cntrl1.Icache.demand_accesses     74505690                       # Number of cache demand accesses
system.ruby.l0_cntrl1.Zcache.demand_hits       517752                       # Number of cache demand hits
system.ruby.l0_cntrl1.Zcache.demand_misses        12979                       # Number of cache demand misses
system.ruby.l0_cntrl1.Zcache.demand_accesses       530731                       # Number of cache demand accesses
system.ruby.l0_cntrl2.Dcache.demand_hits     26844432                       # Number of cache demand hits
system.ruby.l0_cntrl2.Dcache.demand_misses      1789103                       # Number of cache demand misses
system.ruby.l0_cntrl2.Dcache.demand_accesses     28633535                       # Number of cache demand accesses
system.ruby.l0_cntrl2.Icache.demand_hits     74504228                       # Number of cache demand hits
system.ruby.l0_cntrl2.Icache.demand_misses         1462                       # Number of cache demand misses
system.ruby.l0_cntrl2.Icache.demand_accesses     74505690                       # Number of cache demand accesses
system.ruby.l0_cntrl2.Zcache.demand_hits       423131                       # Number of cache demand hits
system.ruby.l0_cntrl2.Zcache.demand_misses        11809                       # Number of cache demand misses
system.ruby.l0_cntrl2.Zcache.demand_accesses       434940                       # Number of cache demand accesses
system.ruby.l1_cntrl0.cache.demand_hits           153                       # Number of cache demand hits
system.ruby.l1_cntrl0.cache.demand_misses      2179795                       # Number of cache demand misses
system.ruby.l1_cntrl0.cache.demand_accesses      2179948                       # Number of cache demand accesses
system.ruby.l1_cntrl0.zcache.demand_hits           65                       # Number of cache demand hits
system.ruby.l1_cntrl0.zcache.demand_misses       529516                       # Number of cache demand misses
system.ruby.l1_cntrl0.zcache.demand_accesses       529581                       # Number of cache demand accesses
system.ruby.l1_cntrl1.cache.demand_hits        165583                       # Number of cache demand hits
system.ruby.l1_cntrl1.cache.demand_misses      1628786                       # Number of cache demand misses
system.ruby.l1_cntrl1.cache.demand_accesses      1794369                       # Number of cache demand accesses
system.ruby.l1_cntrl1.zcache.demand_hits            0                       # Number of cache demand hits
system.ruby.l1_cntrl1.zcache.demand_misses            0                       # Number of cache demand misses
system.ruby.l1_cntrl1.zcache.demand_accesses            0                       # Number of cache demand accesses
system.ruby.l1_cntrl2.cache.demand_hits        157394                       # Number of cache demand hits
system.ruby.l1_cntrl2.cache.demand_misses      1633171                       # Number of cache demand misses
system.ruby.l1_cntrl2.cache.demand_accesses      1790565                       # Number of cache demand accesses
system.ruby.l1_cntrl2.zcache.demand_hits            0                       # Number of cache demand hits
system.ruby.l1_cntrl2.zcache.demand_misses            0                       # Number of cache demand misses
system.ruby.l1_cntrl2.zcache.demand_accesses            0                       # Number of cache demand accesses
system.ruby.l2_cntrl0.L2cache.demand_hits      1624814                       # Number of cache demand hits
system.ruby.l2_cntrl0.L2cache.demand_misses      3816938                       # Number of cache demand misses
system.ruby.l2_cntrl0.L2cache.demand_accesses      5441752                       # Number of cache demand accesses
system.ruby.l2_cntrl0.ZL2cache.demand_hits        12338                       # Number of cache demand hits
system.ruby.l2_cntrl0.ZL2cache.demand_misses       350999                       # Number of cache demand misses
system.ruby.l2_cntrl0.ZL2cache.demand_accesses       363337                       # Number of cache demand accesses
system.ruby.l2_cntrl0.fully_busy_cycles           206                       # cycles for which number of transistions == max transitions
system.ruby.memctrl_clk_domain.clock             1500                       # Clock period in ticks
system.ruby.network.routers0.percent_links_utilized            0                      
system.ruby.network.routers1.percent_links_utilized            0                      
system.ruby.network.routers2.percent_links_utilized            0                      
system.ruby.network.routers3.percent_links_utilized     0.196419                      
system.ruby.network.routers3.msg_count.Control::0      2179795                      
system.ruby.network.routers3.msg_count.Request_Control::2       374855                      
system.ruby.network.routers3.msg_count.Response_Data::1      2179808                      
system.ruby.network.routers3.msg_count.Response_Control::1      1804431                      
system.ruby.network.routers3.msg_count.Response_Control::2      2179793                      
system.ruby.network.routers3.msg_count.Writeback_Data::0      1803798                      
system.ruby.network.routers3.msg_count.Writeback_Data::1       374594                      
system.ruby.network.routers3.msg_count.Writeback_Control::0          360                      
system.ruby.network.routers3.msg_bytes.Control::0     17438360                      
system.ruby.network.routers3.msg_bytes.Request_Control::2      2998840                      
system.ruby.network.routers3.msg_bytes.Response_Data::1    156946176                      
system.ruby.network.routers3.msg_bytes.Response_Control::1     14435448                      
system.ruby.network.routers3.msg_bytes.Response_Control::2     17438344                      
system.ruby.network.routers3.msg_bytes.Writeback_Data::0    129873456                      
system.ruby.network.routers3.msg_bytes.Writeback_Data::1     26970768                      
system.ruby.network.routers3.msg_bytes.Writeback_Control::0         2880                      
system.ruby.network.routers4.percent_links_utilized     0.108904                      
system.ruby.network.routers4.msg_count.Control::0      1628786                      
system.ruby.network.routers4.msg_count.Request_Control::2       495117                      
system.ruby.network.routers4.msg_count.Response_Data::1      1629938                      
system.ruby.network.routers4.msg_count.Response_Control::1      1131427                      
system.ruby.network.routers4.msg_count.Response_Control::2      1625929                      
system.ruby.network.routers4.msg_count.Writeback_Data::0        34905                      
system.ruby.network.routers4.msg_count.Writeback_Data::1       490642                      
system.ruby.network.routers4.msg_count.Writeback_Control::0      1092623                      
system.ruby.network.routers4.msg_bytes.Control::0     13030288                      
system.ruby.network.routers4.msg_bytes.Request_Control::2      3960936                      
system.ruby.network.routers4.msg_bytes.Response_Data::1    117355536                      
system.ruby.network.routers4.msg_bytes.Response_Control::1      9051416                      
system.ruby.network.routers4.msg_bytes.Response_Control::2     13007432                      
system.ruby.network.routers4.msg_bytes.Writeback_Data::0      2513160                      
system.ruby.network.routers4.msg_bytes.Writeback_Data::1     35326224                      
system.ruby.network.routers4.msg_bytes.Writeback_Control::0      8740984                      
system.ruby.network.routers5.percent_links_utilized     0.108935                      
system.ruby.network.routers5.msg_count.Control::0      1633171                      
system.ruby.network.routers5.msg_count.Request_Control::2       498459                      
system.ruby.network.routers5.msg_count.Response_Data::1      1635204                      
system.ruby.network.routers5.msg_count.Response_Control::1      1139910                      
system.ruby.network.routers5.msg_count.Response_Control::2      1630066                      
system.ruby.network.routers5.msg_count.Writeback_Data::0        27444                      
system.ruby.network.routers5.msg_count.Writeback_Data::1       489991                      
system.ruby.network.routers5.msg_count.Writeback_Control::0      1105013                      
system.ruby.network.routers5.msg_bytes.Control::0     13065368                      
system.ruby.network.routers5.msg_bytes.Request_Control::2      3987672                      
system.ruby.network.routers5.msg_bytes.Response_Data::1    117734688                      
system.ruby.network.routers5.msg_bytes.Response_Control::1      9119280                      
system.ruby.network.routers5.msg_bytes.Response_Control::2     13040528                      
system.ruby.network.routers5.msg_bytes.Writeback_Data::0      1975968                      
system.ruby.network.routers5.msg_bytes.Writeback_Data::1     35279352                      
system.ruby.network.routers5.msg_bytes.Writeback_Control::0      8840104                      
system.ruby.network.routers6.percent_links_utilized     0.672766                      
system.ruby.network.routers6.msg_count.Control::0      9257049                      
system.ruby.network.routers6.msg_count.Request_Control::2      1366999                      
system.ruby.network.routers6.msg_count.Response_Data::1     11086463                      
system.ruby.network.routers6.msg_count.Response_Control::1      9717137                      
system.ruby.network.routers6.msg_count.Response_Control::2      5435788                      
system.ruby.network.routers6.msg_count.Writeback_Data::0      1866147                      
system.ruby.network.routers6.msg_count.Writeback_Data::1      1355227                      
system.ruby.network.routers6.msg_count.Writeback_Control::0      2197996                      
system.ruby.network.routers6.msg_bytes.Control::0     74056392                      
system.ruby.network.routers6.msg_bytes.Request_Control::2     10935992                      
system.ruby.network.routers6.msg_bytes.Response_Data::1    798225336                      
system.ruby.network.routers6.msg_bytes.Response_Control::1     77737096                      
system.ruby.network.routers6.msg_bytes.Response_Control::2     43486304                      
system.ruby.network.routers6.msg_bytes.Writeback_Data::0    134362584                      
system.ruby.network.routers6.msg_bytes.Writeback_Data::1     97576344                      
system.ruby.network.routers6.msg_bytes.Writeback_Control::0     17583968                      
system.ruby.network.routers7.percent_links_utilized     0.258640                      
system.ruby.network.routers7.msg_count.Control::0      3815297                      
system.ruby.network.routers7.msg_count.Response_Data::1      5644762                      
system.ruby.network.routers7.msg_count.Response_Control::1      5641399                      
system.ruby.network.routers7.msg_bytes.Control::0     30522376                      
system.ruby.network.routers7.msg_bytes.Response_Data::1    406422864                      
system.ruby.network.routers7.msg_bytes.Response_Control::1     45131192                      
system.ruby.network.routers8.percent_links_utilized     0.168209                      
system.ruby.network.routers8.msg_count.Control::0      9257049                      
system.ruby.network.routers8.msg_count.Request_Control::2      1368431                      
system.ruby.network.routers8.msg_count.Response_Data::1     11088104                      
system.ruby.network.routers8.msg_count.Response_Control::1      9717152                      
system.ruby.network.routers8.msg_count.Response_Control::2      5435788                      
system.ruby.network.routers8.msg_count.Writeback_Data::0      1866147                      
system.ruby.network.routers8.msg_count.Writeback_Data::1      1355227                      
system.ruby.network.routers8.msg_count.Writeback_Control::0      2197996                      
system.ruby.network.routers8.msg_bytes.Control::0     74056392                      
system.ruby.network.routers8.msg_bytes.Request_Control::2     10947448                      
system.ruby.network.routers8.msg_bytes.Response_Data::1    798343488                      
system.ruby.network.routers8.msg_bytes.Response_Control::1     77737216                      
system.ruby.network.routers8.msg_bytes.Response_Control::2     43486304                      
system.ruby.network.routers8.msg_bytes.Writeback_Data::0    134362584                      
system.ruby.network.routers8.msg_bytes.Writeback_Data::1     97576344                      
system.ruby.network.routers8.msg_bytes.Writeback_Control::0     17583968                      
system.ruby.network.msg_count.Control        27771147                      
system.ruby.network.msg_count.Request_Control      4103861                      
system.ruby.network.msg_count.Response_Data     33264279                      
system.ruby.network.msg_count.Response_Control     45458820                      
system.ruby.network.msg_count.Writeback_Data      9664122                      
system.ruby.network.msg_count.Writeback_Control      6593988                      
system.ruby.network.msg_byte.Control        222169176                      
system.ruby.network.msg_byte.Request_Control     32830888                      
system.ruby.network.msg_byte.Response_Data   2395028088                      
system.ruby.network.msg_byte.Response_Control    363670560                      
system.ruby.network.msg_byte.Writeback_Data    695816784                      
system.ruby.network.msg_byte.Writeback_Control     52751904                      
system.ruby.network.routers0.throttle0.link_utilization            0                      
system.ruby.network.routers0.throttle1.link_utilization            0                      
system.ruby.network.routers1.throttle0.link_utilization            0                      
system.ruby.network.routers1.throttle1.link_utilization            0                      
system.ruby.network.routers2.throttle0.link_utilization            0                      
system.ruby.network.routers2.throttle1.link_utilization            0                      
system.ruby.network.routers3.throttle0.link_utilization     0.187110                      
system.ruby.network.routers3.throttle0.msg_count.Request_Control::2       374855                      
system.ruby.network.routers3.throttle0.msg_count.Response_Data::1      2179783                      
system.ruby.network.routers3.throttle0.msg_count.Response_Control::1      1804183                      
system.ruby.network.routers3.throttle0.msg_bytes.Request_Control::2      2998840                      
system.ruby.network.routers3.throttle0.msg_bytes.Response_Data::1    156944376                      
system.ruby.network.routers3.throttle0.msg_bytes.Response_Control::1     14433464                      
system.ruby.network.routers3.throttle1.link_utilization     0.205728                      
system.ruby.network.routers3.throttle1.msg_count.Control::0      2179795                      
system.ruby.network.routers3.throttle1.msg_count.Response_Data::1           25                      
system.ruby.network.routers3.throttle1.msg_count.Response_Control::1          248                      
system.ruby.network.routers3.throttle1.msg_count.Response_Control::2      2179793                      
system.ruby.network.routers3.throttle1.msg_count.Writeback_Data::0      1803798                      
system.ruby.network.routers3.throttle1.msg_count.Writeback_Data::1       374594                      
system.ruby.network.routers3.throttle1.msg_count.Writeback_Control::0          360                      
system.ruby.network.routers3.throttle1.msg_bytes.Control::0     17438360                      
system.ruby.network.routers3.throttle1.msg_bytes.Response_Data::1         1800                      
system.ruby.network.routers3.throttle1.msg_bytes.Response_Control::1         1984                      
system.ruby.network.routers3.throttle1.msg_bytes.Response_Control::2     17438344                      
system.ruby.network.routers3.throttle1.msg_bytes.Writeback_Data::0    129873456                      
system.ruby.network.routers3.throttle1.msg_bytes.Writeback_Data::1     26970768                      
system.ruby.network.routers3.throttle1.msg_bytes.Writeback_Control::0         2880                      
system.ruby.network.routers4.throttle0.link_utilization     0.139765                      
system.ruby.network.routers4.throttle0.msg_count.Request_Control::2       495117                      
system.ruby.network.routers4.throttle0.msg_count.Response_Data::1      1628785                      
system.ruby.network.routers4.throttle0.msg_count.Response_Control::1      1127530                      
system.ruby.network.routers4.throttle0.msg_bytes.Request_Control::2      3960936                      
system.ruby.network.routers4.throttle0.msg_bytes.Response_Data::1    117272520                      
system.ruby.network.routers4.throttle0.msg_bytes.Response_Control::1      9020240                      
system.ruby.network.routers4.throttle1.link_utilization     0.078043                      
system.ruby.network.routers4.throttle1.msg_count.Control::0      1628786                      
system.ruby.network.routers4.throttle1.msg_count.Response_Data::1         1153                      
system.ruby.network.routers4.throttle1.msg_count.Response_Control::1         3897                      
system.ruby.network.routers4.throttle1.msg_count.Response_Control::2      1625929                      
system.ruby.network.routers4.throttle1.msg_count.Writeback_Data::0        34905                      
system.ruby.network.routers4.throttle1.msg_count.Writeback_Data::1       490642                      
system.ruby.network.routers4.throttle1.msg_count.Writeback_Control::0      1092623                      
system.ruby.network.routers4.throttle1.msg_bytes.Control::0     13030288                      
system.ruby.network.routers4.throttle1.msg_bytes.Response_Data::1        83016                      
system.ruby.network.routers4.throttle1.msg_bytes.Response_Control::1        31176                      
system.ruby.network.routers4.throttle1.msg_bytes.Response_Control::2     13007432                      
system.ruby.network.routers4.throttle1.msg_bytes.Writeback_Data::0      2513160                      
system.ruby.network.routers4.throttle1.msg_bytes.Writeback_Data::1     35326224                      
system.ruby.network.routers4.throttle1.msg_bytes.Writeback_Control::0      8740984                      
system.ruby.network.routers5.throttle0.link_utilization     0.140175                      
system.ruby.network.routers5.throttle0.msg_count.Request_Control::2       498459                      
system.ruby.network.routers5.throttle0.msg_count.Response_Data::1      1633170                      
system.ruby.network.routers5.throttle0.msg_count.Response_Control::1      1132459                      
system.ruby.network.routers5.throttle0.msg_bytes.Request_Control::2      3987672                      
system.ruby.network.routers5.throttle0.msg_bytes.Response_Data::1    117588240                      
system.ruby.network.routers5.throttle0.msg_bytes.Response_Control::1      9059672                      
system.ruby.network.routers5.throttle1.link_utilization     0.077695                      
system.ruby.network.routers5.throttle1.msg_count.Control::0      1633171                      
system.ruby.network.routers5.throttle1.msg_count.Response_Data::1         2034                      
system.ruby.network.routers5.throttle1.msg_count.Response_Control::1         7451                      
system.ruby.network.routers5.throttle1.msg_count.Response_Control::2      1630066                      
system.ruby.network.routers5.throttle1.msg_count.Writeback_Data::0        27444                      
system.ruby.network.routers5.throttle1.msg_count.Writeback_Data::1       489991                      
system.ruby.network.routers5.throttle1.msg_count.Writeback_Control::0      1105013                      
system.ruby.network.routers5.throttle1.msg_bytes.Control::0     13065368                      
system.ruby.network.routers5.throttle1.msg_bytes.Response_Data::1       146448                      
system.ruby.network.routers5.throttle1.msg_bytes.Response_Control::1        59608                      
system.ruby.network.routers5.throttle1.msg_bytes.Response_Control::2     13040528                      
system.ruby.network.routers5.throttle1.msg_bytes.Writeback_Data::0      1975968                      
system.ruby.network.routers5.throttle1.msg_bytes.Writeback_Data::1     35279352                      
system.ruby.network.routers5.throttle1.msg_bytes.Writeback_Control::0      8840104                      
system.ruby.network.routers6.throttle0.link_utilization     0.688169                      
system.ruby.network.routers6.throttle0.msg_count.Control::0      5441752                      
system.ruby.network.routers6.throttle0.msg_count.Response_Data::1      3816901                      
system.ruby.network.routers6.throttle0.msg_count.Response_Control::1      3747013                      
system.ruby.network.routers6.throttle0.msg_count.Response_Control::2      5435788                      
system.ruby.network.routers6.throttle0.msg_count.Writeback_Data::0      1866147                      
system.ruby.network.routers6.throttle0.msg_count.Writeback_Data::1      1355227                      
system.ruby.network.routers6.throttle0.msg_count.Writeback_Control::0      2197996                      
system.ruby.network.routers6.throttle0.msg_bytes.Control::0     43534016                      
system.ruby.network.routers6.throttle0.msg_bytes.Response_Data::1    274816872                      
system.ruby.network.routers6.throttle0.msg_bytes.Response_Control::1     29976104                      
system.ruby.network.routers6.throttle0.msg_bytes.Response_Control::2     43486304                      
system.ruby.network.routers6.throttle0.msg_bytes.Writeback_Data::0    134362584                      
system.ruby.network.routers6.throttle0.msg_bytes.Writeback_Data::1     97576344                      
system.ruby.network.routers6.throttle0.msg_bytes.Writeback_Control::0     17583968                      
system.ruby.network.routers6.throttle1.link_utilization     0.657364                      
system.ruby.network.routers6.throttle1.msg_count.Control::0      3815297                      
system.ruby.network.routers6.throttle1.msg_count.Request_Control::2      1366999                      
system.ruby.network.routers6.throttle1.msg_count.Response_Data::1      7269562                      
system.ruby.network.routers6.throttle1.msg_count.Response_Control::1      5970124                      
system.ruby.network.routers6.throttle1.msg_bytes.Control::0     30522376                      
system.ruby.network.routers6.throttle1.msg_bytes.Request_Control::2     10935992                      
system.ruby.network.routers6.throttle1.msg_bytes.Response_Data::1    523408464                      
system.ruby.network.routers6.throttle1.msg_bytes.Response_Control::1     47760992                      
system.ruby.network.routers7.throttle0.link_utilization     0.190453                      
system.ruby.network.routers7.throttle0.msg_count.Control::0      3815297                      
system.ruby.network.routers7.throttle0.msg_count.Response_Data::1      1829465                      
system.ruby.network.routers7.throttle0.msg_count.Response_Control::1      1905967                      
system.ruby.network.routers7.throttle0.msg_bytes.Control::0     30522376                      
system.ruby.network.routers7.throttle0.msg_bytes.Response_Data::1    131721480                      
system.ruby.network.routers7.throttle0.msg_bytes.Response_Control::1     15247736                      
system.ruby.network.routers7.throttle1.link_utilization     0.326827                      
system.ruby.network.routers7.throttle1.msg_count.Response_Data::1      3815297                      
system.ruby.network.routers7.throttle1.msg_count.Response_Control::1      3735432                      
system.ruby.network.routers7.throttle1.msg_bytes.Response_Data::1    274701384                      
system.ruby.network.routers7.throttle1.msg_bytes.Response_Control::1     29883456                      
system.ruby.network.routers8.throttle0.link_utilization            0                      
system.ruby.network.routers8.throttle1.link_utilization            0                      
system.ruby.network.routers8.throttle2.link_utilization            0                      
system.ruby.network.routers8.throttle3.link_utilization     0.187110                      
system.ruby.network.routers8.throttle3.msg_count.Request_Control::2       374855                      
system.ruby.network.routers8.throttle3.msg_count.Response_Data::1      2179783                      
system.ruby.network.routers8.throttle3.msg_count.Response_Control::1      1804183                      
system.ruby.network.routers8.throttle3.msg_bytes.Request_Control::2      2998840                      
system.ruby.network.routers8.throttle3.msg_bytes.Response_Data::1    156944376                      
system.ruby.network.routers8.throttle3.msg_bytes.Response_Control::1     14433464                      
system.ruby.network.routers8.throttle4.link_utilization     0.139765                      
system.ruby.network.routers8.throttle4.msg_count.Request_Control::2       495117                      
system.ruby.network.routers8.throttle4.msg_count.Response_Data::1      1628785                      
system.ruby.network.routers8.throttle4.msg_count.Response_Control::1      1127530                      
system.ruby.network.routers8.throttle4.msg_bytes.Request_Control::2      3960936                      
system.ruby.network.routers8.throttle4.msg_bytes.Response_Data::1    117272520                      
system.ruby.network.routers8.throttle4.msg_bytes.Response_Control::1      9020240                      
system.ruby.network.routers8.throttle5.link_utilization     0.140175                      
system.ruby.network.routers8.throttle5.msg_count.Request_Control::2       498459                      
system.ruby.network.routers8.throttle5.msg_count.Response_Data::1      1633170                      
system.ruby.network.routers8.throttle5.msg_count.Response_Control::1      1132459                      
system.ruby.network.routers8.throttle5.msg_bytes.Request_Control::2      3987672                      
system.ruby.network.routers8.throttle5.msg_bytes.Response_Data::1    117588240                      
system.ruby.network.routers8.throttle5.msg_bytes.Response_Control::1      9059672                      
system.ruby.network.routers8.throttle6.link_utilization     0.688169                      
system.ruby.network.routers8.throttle6.msg_count.Control::0      5441752                      
system.ruby.network.routers8.throttle6.msg_count.Response_Data::1      3816901                      
system.ruby.network.routers8.throttle6.msg_count.Response_Control::1      3747013                      
system.ruby.network.routers8.throttle6.msg_count.Response_Control::2      5435788                      
system.ruby.network.routers8.throttle6.msg_count.Writeback_Data::0      1866147                      
system.ruby.network.routers8.throttle6.msg_count.Writeback_Data::1      1355227                      
system.ruby.network.routers8.throttle6.msg_count.Writeback_Control::0      2197996                      
system.ruby.network.routers8.throttle6.msg_bytes.Control::0     43534016                      
system.ruby.network.routers8.throttle6.msg_bytes.Response_Data::1    274816872                      
system.ruby.network.routers8.throttle6.msg_bytes.Response_Control::1     29976104                      
system.ruby.network.routers8.throttle6.msg_bytes.Response_Control::2     43486304                      
system.ruby.network.routers8.throttle6.msg_bytes.Writeback_Data::0    134362584                      
system.ruby.network.routers8.throttle6.msg_bytes.Writeback_Data::1     97576344                      
system.ruby.network.routers8.throttle6.msg_bytes.Writeback_Control::0     17583968                      
system.ruby.network.routers8.throttle7.link_utilization     0.190453                      
system.ruby.network.routers8.throttle7.msg_count.Control::0      3815297                      
system.ruby.network.routers8.throttle7.msg_count.Response_Data::1      1829465                      
system.ruby.network.routers8.throttle7.msg_count.Response_Control::1      1905967                      
system.ruby.network.routers8.throttle7.msg_bytes.Control::0     30522376                      
system.ruby.network.routers8.throttle7.msg_bytes.Response_Data::1    131721480                      
system.ruby.network.routers8.throttle7.msg_bytes.Response_Control::1     15247736                      
system.ruby.delayVCHist.vnet_0::bucket_size            8                       # delay histogram for vnet_0
system.ruby.delayVCHist.vnet_0::max_bucket           79                       # delay histogram for vnet_0
system.ruby.delayVCHist.vnet_0::samples      14941683                       # delay histogram for vnet_0
system.ruby.delayVCHist.vnet_0::mean         1.038701                       # delay histogram for vnet_0
system.ruby.delayVCHist.vnet_0::stdev        2.684510                       # delay histogram for vnet_0
system.ruby.delayVCHist.vnet_0           |    13050101     87.34%     87.34% |     1888973     12.64%     99.98% |        2547      0.02%    100.00% |          24      0.00%    100.00% |           6      0.00%    100.00% |          20      0.00%    100.00% |          10      0.00%    100.00% |           2      0.00%    100.00% |           0      0.00%    100.00% |           0      0.00%    100.00% # delay histogram for vnet_0
system.ruby.delayVCHist.vnet_0::total        14941683                       # delay histogram for vnet_0
system.ruby.delayVCHist.vnet_1::bucket_size            2                       # delay histogram for vnet_1
system.ruby.delayVCHist.vnet_1::max_bucket           19                       # delay histogram for vnet_1
system.ruby.delayVCHist.vnet_1::samples      24189933                       # delay histogram for vnet_1
system.ruby.delayVCHist.vnet_1::mean         0.015189                       # delay histogram for vnet_1
system.ruby.delayVCHist.vnet_1::stdev        0.289396                       # delay histogram for vnet_1
system.ruby.delayVCHist.vnet_1           |    24106540     99.66%     99.66% |       29233      0.12%     99.78% |       22925      0.09%     99.87% |       16802      0.07%     99.94% |       14041      0.06%    100.00% |         347      0.00%    100.00% |          16      0.00%    100.00% |           4      0.00%    100.00% |          24      0.00%    100.00% |           1      0.00%    100.00% # delay histogram for vnet_1
system.ruby.delayVCHist.vnet_1::total        24189933                       # delay histogram for vnet_1
system.ruby.delayVCHist.vnet_2::bucket_size            2                       # delay histogram for vnet_2
system.ruby.delayVCHist.vnet_2::max_bucket           19                       # delay histogram for vnet_2
system.ruby.delayVCHist.vnet_2::samples       1464041                       # delay histogram for vnet_2
system.ruby.delayVCHist.vnet_2::mean         0.056890                       # delay histogram for vnet_2
system.ruby.delayVCHist.vnet_2::stdev        0.530525                       # delay histogram for vnet_2
system.ruby.delayVCHist.vnet_2           |     1447297     98.86%     98.86% |         177      0.01%     98.87% |       16553      1.13%    100.00% |           5      0.00%    100.00% |           0      0.00%    100.00% |           0      0.00%    100.00% |           0      0.00%    100.00% |           9      0.00%    100.00% |           0      0.00%    100.00% |           0      0.00%    100.00% # delay histogram for vnet_2
system.ruby.delayVCHist.vnet_2::total         1464041                       # delay histogram for vnet_2
system.ruby.LD.latency_hist::bucket_size           16                      
system.ruby.LD.latency_hist::max_bucket           159                      
system.ruby.LD.latency_hist::samples        441437060                      
system.ruby.LD.latency_hist::mean            1.310360                      
system.ruby.LD.latency_hist::gmean           1.028151                      
system.ruby.LD.latency_hist::stdev           4.019096                      
system.ruby.LD.latency_hist              |   438186773     99.26%     99.26% |     1612509      0.37%     99.63% |        3636      0.00%     99.63% |     1468610      0.33%     99.96% |      123662      0.03%     99.99% |       40997      0.01%    100.00% |         810      0.00%    100.00% |          56      0.00%    100.00% |           7      0.00%    100.00% |           0      0.00%    100.00%
system.ruby.LD.latency_hist::total          441437060                      
system.ruby.LD.hit_latency_hist::bucket_size           16                      
system.ruby.LD.hit_latency_hist::max_bucket          159                      
system.ruby.LD.hit_latency_hist::samples    441437060                      
system.ruby.LD.hit_latency_hist::mean        1.310360                      
system.ruby.LD.hit_latency_hist::gmean       1.028151                      
system.ruby.LD.hit_latency_hist::stdev       4.019096                      
system.ruby.LD.hit_latency_hist          |   438186773     99.26%     99.26% |     1612509      0.37%     99.63% |        3636      0.00%     99.63% |     1468610      0.33%     99.96% |      123662      0.03%     99.99% |       40997      0.01%    100.00% |         810      0.00%    100.00% |          56      0.00%    100.00% |           7      0.00%    100.00% |           0      0.00%    100.00%
system.ruby.LD.hit_latency_hist::total      441437060                      
system.ruby.ST.latency_hist::bucket_size           16                      
system.ruby.ST.latency_hist::max_bucket           159                      
system.ruby.ST.latency_hist::samples        228395971                      
system.ruby.ST.latency_hist::mean            1.762556                      
system.ruby.ST.latency_hist::gmean           1.042755                      
system.ruby.ST.latency_hist::stdev           7.843939                      
system.ruby.ST.latency_hist              |   226213224     99.04%     99.04% |        3343      0.00%     99.05% |           4      0.00%     99.05% |      219967      0.10%     99.14% |      545454      0.24%     99.38% |     1391409      0.61%     99.99% |       22495      0.01%    100.00% |          73      0.00%    100.00% |           2      0.00%    100.00% |           0      0.00%    100.00%
system.ruby.ST.latency_hist::total          228395971                      
system.ruby.ST.hit_latency_hist::bucket_size           16                      
system.ruby.ST.hit_latency_hist::max_bucket          159                      
system.ruby.ST.hit_latency_hist::samples    228395971                      
system.ruby.ST.hit_latency_hist::mean        1.762556                      
system.ruby.ST.hit_latency_hist::gmean       1.042755                      
system.ruby.ST.hit_latency_hist::stdev       7.843939                      
system.ruby.ST.hit_latency_hist          |   226213224     99.04%     99.04% |        3343      0.00%     99.05% |           4      0.00%     99.05% |      219967      0.10%     99.14% |      545454      0.24%     99.38% |     1391409      0.61%     99.99% |       22495      0.01%    100.00% |          73      0.00%    100.00% |           2      0.00%    100.00% |           0      0.00%    100.00%
system.ruby.ST.hit_latency_hist::total      228395971                      
system.ruby.IFETCH.latency_hist::bucket_size           16                      
system.ruby.IFETCH.latency_hist::max_bucket          159                      
system.ruby.IFETCH.latency_hist::samples   2260499716                      
system.ruby.IFETCH.latency_hist::mean        1.000118                      
system.ruby.IFETCH.latency_hist::gmean       1.000013                      
system.ruby.IFETCH.latency_hist::stdev       0.069787                      
system.ruby.IFETCH.latency_hist          |  2260491089    100.00%    100.00% |        6846      0.00%    100.00% |          28      0.00%    100.00% |        1356      0.00%    100.00% |         203      0.00%    100.00% |         192      0.00%    100.00% |           2      0.00%    100.00% |           0      0.00%    100.00% |           0      0.00%    100.00% |           0      0.00%    100.00%
system.ruby.IFETCH.latency_hist::total     2260499716                      
system.ruby.IFETCH.hit_latency_hist::bucket_size           16                      
system.ruby.IFETCH.hit_latency_hist::max_bucket          159                      
system.ruby.IFETCH.hit_latency_hist::samples   2260499716                      
system.ruby.IFETCH.hit_latency_hist::mean     1.000118                      
system.ruby.IFETCH.hit_latency_hist::gmean     1.000013                      
system.ruby.IFETCH.hit_latency_hist::stdev     0.069787                      
system.ruby.IFETCH.hit_latency_hist      |  2260491089    100.00%    100.00% |        6846      0.00%    100.00% |          28      0.00%    100.00% |        1356      0.00%    100.00% |         203      0.00%    100.00% |         192      0.00%    100.00% |           2      0.00%    100.00% |           0      0.00%    100.00% |           0      0.00%    100.00% |           0      0.00%    100.00%
system.ruby.IFETCH.hit_latency_hist::total   2260499716                      
system.ruby.RMW_Read.latency_hist::bucket_size            8                      
system.ruby.RMW_Read.latency_hist::max_bucket           79                      
system.ruby.RMW_Read.latency_hist::samples          454                      
system.ruby.RMW_Read.latency_hist::mean      2.253304                      
system.ruby.RMW_Read.latency_hist::gmean     1.108705                      
system.ruby.RMW_Read.latency_hist::stdev     8.204057                      
system.ruby.RMW_Read.latency_hist        |         442     97.36%     97.36% |           0      0.00%     97.36% |           2      0.44%     97.80% |           3      0.66%     98.46% |           0      0.00%     98.46% |           0      0.00%     98.46% |           0      0.00%     98.46% |           5      1.10%     99.56% |           2      0.44%    100.00% |           0      0.00%    100.00%
system.ruby.RMW_Read.latency_hist::total          454                      
system.ruby.RMW_Read.hit_latency_hist::bucket_size            8                      
system.ruby.RMW_Read.hit_latency_hist::max_bucket           79                      
system.ruby.RMW_Read.hit_latency_hist::samples          454                      
system.ruby.RMW_Read.hit_latency_hist::mean     2.253304                      
system.ruby.RMW_Read.hit_latency_hist::gmean     1.108705                      
system.ruby.RMW_Read.hit_latency_hist::stdev     8.204057                      
system.ruby.RMW_Read.hit_latency_hist    |         442     97.36%     97.36% |           0      0.00%     97.36% |           2      0.44%     97.80% |           3      0.66%     98.46% |           0      0.00%     98.46% |           0      0.00%     98.46% |           0      0.00%     98.46% |           5      1.10%     99.56% |           2      0.44%    100.00% |           0      0.00%    100.00%
system.ruby.RMW_Read.hit_latency_hist::total          454                      
system.ruby.Locked_RMW_Read.latency_hist::bucket_size           16                      
system.ruby.Locked_RMW_Read.latency_hist::max_bucket          159                      
system.ruby.Locked_RMW_Read.latency_hist::samples     50718283                      
system.ruby.Locked_RMW_Read.latency_hist::mean     1.000051                      
system.ruby.Locked_RMW_Read.latency_hist::gmean     1.000007                      
system.ruby.Locked_RMW_Read.latency_hist::stdev     0.044124                      
system.ruby.Locked_RMW_Read.latency_hist |    50718204    100.00%    100.00% |          66      0.00%    100.00% |           0      0.00%    100.00% |           6      0.00%    100.00% |           3      0.00%    100.00% |           4      0.00%    100.00% |           0      0.00%    100.00% |           0      0.00%    100.00% |           0      0.00%    100.00% |           0      0.00%    100.00%
system.ruby.Locked_RMW_Read.latency_hist::total     50718283                      
system.ruby.Locked_RMW_Read.hit_latency_hist::bucket_size           16                      
system.ruby.Locked_RMW_Read.hit_latency_hist::max_bucket          159                      
system.ruby.Locked_RMW_Read.hit_latency_hist::samples     50718283                      
system.ruby.Locked_RMW_Read.hit_latency_hist::mean     1.000051                      
system.ruby.Locked_RMW_Read.hit_latency_hist::gmean     1.000007                      
system.ruby.Locked_RMW_Read.hit_latency_hist::stdev     0.044124                      
system.ruby.Locked_RMW_Read.hit_latency_hist |    50718204    100.00%    100.00% |          66      0.00%    100.00% |           0      0.00%    100.00% |           6      0.00%    100.00% |           3      0.00%    100.00% |           4      0.00%    100.00% |           0      0.00%    100.00% |           0      0.00%    100.00% |           0      0.00%    100.00% |           0      0.00%    100.00%
system.ruby.Locked_RMW_Read.hit_latency_hist::total     50718283                      
system.ruby.Locked_RMW_Write.latency_hist::bucket_size            1                      
system.ruby.Locked_RMW_Write.latency_hist::max_bucket            9                      
system.ruby.Locked_RMW_Write.latency_hist::samples     50718283                      
system.ruby.Locked_RMW_Write.latency_hist::mean            1                      
system.ruby.Locked_RMW_Write.latency_hist::gmean            1                      
system.ruby.Locked_RMW_Write.latency_hist |           0      0.00%      0.00% |    50718283    100.00%    100.00% |           0      0.00%    100.00% |           0      0.00%    100.00% |           0      0.00%    100.00% |           0      0.00%    100.00% |           0      0.00%    100.00% |           0      0.00%    100.00% |           0      0.00%    100.00% |           0      0.00%    100.00%
system.ruby.Locked_RMW_Write.latency_hist::total     50718283                      
system.ruby.Locked_RMW_Write.hit_latency_hist::bucket_size            1                      
system.ruby.Locked_RMW_Write.hit_latency_hist::max_bucket            9                      
system.ruby.Locked_RMW_Write.hit_latency_hist::samples     50718283                      
system.ruby.Locked_RMW_Write.hit_latency_hist::mean            1                      
system.ruby.Locked_RMW_Write.hit_latency_hist::gmean            1                      
system.ruby.Locked_RMW_Write.hit_latency_hist |           0      0.00%      0.00% |    50718283    100.00%    100.00% |           0      0.00%    100.00% |           0      0.00%    100.00% |           0      0.00%    100.00% |           0      0.00%    100.00% |           0      0.00%    100.00% |           0      0.00%    100.00% |           0      0.00%    100.00% |           0      0.00%    100.00%
system.ruby.Locked_RMW_Write.hit_latency_hist::total     50718283                      
system.ruby.Directory_Controller.Fetch        3815297      0.00%      0.00%
system.ruby.Directory_Controller.Data         1829465      0.00%      0.00%
system.ruby.Directory_Controller.Memory_Data      3815297      0.00%      0.00%
system.ruby.Directory_Controller.Memory_Ack      1829465      0.00%      0.00%
system.ruby.Directory_Controller.CleanReplacement      1905967      0.00%      0.00%
system.ruby.Directory_Controller.I.Fetch      3815297      0.00%      0.00%
system.ruby.Directory_Controller.M.Data       1829465      0.00%      0.00%
system.ruby.Directory_Controller.M.CleanReplacement      1905967      0.00%      0.00%
system.ruby.Directory_Controller.IM.Memory_Data      3815297      0.00%      0.00%
system.ruby.Directory_Controller.MI.Memory_Ack      1829465      0.00%      0.00%
system.ruby.L0Cache_Controller.Load      |   384493766     87.10%     87.10% |    28471647      6.45%     93.55% |    28471647      6.45%    100.00%
system.ruby.L0Cache_Controller.Load::total    441437060                      
system.ruby.L0Cache_Controller.Ifetch    |  2111488336     93.41%     93.41% |    74505690      3.30%     96.70% |    74505690      3.30%    100.00%
system.ruby.L0Cache_Controller.Ifetch::total   2260499716                      
system.ruby.L0Cache_Controller.Store     |   329509215     99.90%     99.90% |      161888      0.05%     99.95% |      161888      0.05%    100.00%
system.ruby.L0Cache_Controller.Store::total    329832991                      
system.ruby.L0Cache_Controller.Inv       |       10992     11.50%     11.50% |       43776     45.79%     57.28% |       40842     42.72%    100.00%
system.ruby.L0Cache_Controller.Inv::total        95610                      
system.ruby.L0Cache_Controller.L0_Replacement |     2168241     38.24%     38.24% |     1751192     30.88%     69.13% |     1750619     30.87%    100.00%
system.ruby.L0Cache_Controller.L0_Replacement::total      5670052                      
system.ruby.L0Cache_Controller.Data      |          21      0.24%      0.24% |        4427     50.22%     50.46% |        4367     49.54%    100.00%
system.ruby.L0Cache_Controller.Data::total         8815                      
system.ruby.L0Cache_Controller.Data_Exclusive |     2179927     37.87%     37.87% |     1789942     31.10%     68.97% |     1786198     31.03%    100.00%
system.ruby.L0Cache_Controller.Data_Exclusive::total      5756067                      
system.ruby.L0Cache_Controller.NP.Load   |        2212      0.06%      0.06% |     1787220     50.02%     50.08% |     1783841     49.92%    100.00%
system.ruby.L0Cache_Controller.NP.Load::total      3573273                      
system.ruby.L0Cache_Controller.NP.Ifetch |        5414     62.25%     62.25% |        1821     20.94%     83.19% |        1462     16.81%    100.00%
system.ruby.L0Cache_Controller.NP.Ifetch::total         8697                      
system.ruby.L0Cache_Controller.NP.Store  |     2172310     99.51%     99.51% |        5327      0.24%     99.76% |        5261      0.24%    100.00%
system.ruby.L0Cache_Controller.NP.Store::total      2182898                      
system.ruby.L0Cache_Controller.NP.Inv    |           0      0.00%      0.00% |        1225     57.32%     57.32% |         912     42.68%    100.00%
system.ruby.L0Cache_Controller.NP.Inv::total         2137                      
system.ruby.L0Cache_Controller.S.Load    |     9573745     58.80%     58.80% |     3421554     21.01%     79.81% |     3286742     20.19%    100.00%
system.ruby.L0Cache_Controller.S.Load::total     16282041                      
system.ruby.L0Cache_Controller.S.Ifetch  |          48      0.00%      0.00% |    74503401     50.00%     50.00% |    74503887     50.00%    100.00%
[...]
system.ruby.L0Cache_Controller.IM.Data_Exclusive::total      2182898                      
system.ruby.L0Cache_Controller.SM.Data_Exclusive |          12     85.71%     85.71% |           1      7.14%     92.86% |           1      7.14%    100.00%
system.ruby.L0Cache_Controller.SM.Data_Exclusive::total           14                      
system.ruby.L1Cache_Controller.Load      |        7626      0.21%      0.21% |     1789041     49.95%     50.16% |     1785303     49.84%    100.00%
system.ruby.L1Cache_Controller.Load::total      3581970                      
system.ruby.L1Cache_Controller.Store     |     2172322     99.51%     99.51% |        5328      0.24%     99.76% |        5262      0.24%    100.00%
system.ruby.L1Cache_Controller.Store::total      2182912                      
system.ruby.L1Cache_Controller.WriteBack |     2168238     38.26%     38.26% |     1749896     30.87%     69.13% |     1749707     30.87%    100.00%
system.ruby.L1Cache_Controller.WriteBack::total      5667841                      
system.ruby.L1Cache_Controller.L0_DataAck |        5819     35.28%     35.28% |        5256     31.87%     67.15% |        5417     32.85%    100.00%
system.ruby.L1Cache_Controller.L0_DataAck::total        16492                      
system.ruby.L1Cache_Controller.Inv       |      374842     27.42%     27.42% |      494539     36.18%     63.61% |      497442     36.39%    100.00%
system.ruby.L1Cache_Controller.Inv::total      1366823                      
system.ruby.L1Cache_Controller.L0_Invalidate_Own |       17800     11.26%     11.26% |       77448     49.00%     60.26% |       62820     39.74%    100.00%
system.ruby.L1Cache_Controller.L0_Invalidate_Own::total       158068                      
system.ruby.L1Cache_Controller.L0_Invalidate_Else |        4184     12.62%     12.62% |       10104     30.48%     43.10% |       18864     56.90%    100.00%
system.ruby.L1Cache_Controller.L0_Invalidate_Else::total        33152                      
system.ruby.L1Cache_Controller.L1_Replacement |     1804158     44.30%     44.30% |     1131605     27.79%     72.09% |     1136664     27.91%    100.00%
system.ruby.L1Cache_Controller.L1_Replacement::total      4072427                      
system.ruby.L1Cache_Controller.Fwd_GETX  |           1     25.00%     25.00% |           3     75.00%    100.00% |           0      0.00%    100.00%
system.ruby.L1Cache_Controller.Fwd_GETX::total            4                      
system.ruby.L1Cache_Controller.Fwd_GETS  |          12      0.75%      0.75% |         575     35.85%     36.60% |        1017     63.40%    100.00%
system.ruby.L1Cache_Controller.Fwd_GETS::total         1604                      
system.ruby.L1Cache_Controller.Data_Exclusive |        7528      0.23%      0.23% |     1619577     49.81%     50.04% |     1624241     49.96%    100.00%
system.ruby.L1Cache_Controller.Data_Exclusive::total      3251346                      
system.ruby.L1Cache_Controller.DataS_fromL1 |          16      1.00%      1.00% |        1025     63.90%     64.90% |         563     35.10%    100.00%
system.ruby.L1Cache_Controller.DataS_fromL1::total         1604                      
system.ruby.L1Cache_Controller.Data_all_Acks |     2172239     99.24%     99.24% |        8183      0.37%     99.62% |        8366      0.38%    100.00%
system.ruby.L1Cache_Controller.Data_all_Acks::total      2188788                      
system.ruby.L1Cache_Controller.L0_Ack    |        5173      6.54%      6.54% |       38520     48.69%     55.23% |       35425     44.77%    100.00%
system.ruby.L1Cache_Controller.L0_Ack::total        79118                      
system.ruby.L1Cache_Controller.Ack       |          13     86.67%     86.67% |           1      6.67%     93.33% |           1      6.67%    100.00%
system.ruby.L1Cache_Controller.Ack::total           15                      
system.ruby.L1Cache_Controller.Ack_all   |          12     85.71%     85.71% |           1      7.14%     92.86% |           1      7.14%    100.00%
system.ruby.L1Cache_Controller.Ack_all::total           14                      
system.ruby.L1Cache_Controller.WB_Ack    |     1804158     44.39%     44.39% |     1127528     27.74%     72.14% |     1132457     27.86%    100.00%
system.ruby.L1Cache_Controller.WB_Ack::total      4064143                      
system.ruby.L1Cache_Controller.NP.Load   |        7546      0.23%      0.23% |     1623459     49.82%     50.05% |     1627909     49.95%    100.00%
system.ruby.L1Cache_Controller.NP.Load::total      3258914                      
system.ruby.L1Cache_Controller.NP.Store  |     2172237     99.51%     99.51% |        5326      0.24%     99.76% |        5261      0.24%    100.00%
system.ruby.L1Cache_Controller.NP.Store::total      2182824                      
system.ruby.L1Cache_Controller.NP.Inv    |           0      0.00%      0.00% |        1133     50.94%     50.94% |        1091     49.06%    100.00%
system.ruby.L1Cache_Controller.NP.Inv::total         2224                      
system.ruby.L1Cache_Controller.I.L1_Replacement |           0      0.00%      0.00% |           2    100.00%    100.00% |           0      0.00%    100.00%
system.ruby.L1Cache_Controller.I.L1_Replacement::total            2                      
system.ruby.L1Cache_Controller.S.Load    |           1    100.00%    100.00% |           0      0.00%    100.00% |           0      0.00%    100.00%
system.ruby.L1Cache_Controller.S.Load::total            1                      
system.ruby.L1Cache_Controller.S.Store   |          12     85.71%     85.71% |           1      7.14%     92.86% |           1      7.14%    100.00%
system.ruby.L1Cache_Controller.S.Store::total           14                      
system.ruby.L1Cache_Controller.S.L0_Invalidate_Own |           0      0.00%      0.00% |        4071     49.93%     49.93% |        4082     50.07%    100.00%
system.ruby.L1Cache_Controller.S.L0_Invalidate_Own::total         8153                      
system.ruby.L1Cache_Controller.S.L0_Invalidate_Else |           4      0.71%      0.71% |         279     49.64%     50.36% |         279     49.64%    100.00%
system.ruby.L1Cache_Controller.S.L0_Invalidate_Else::total          562                      
system.ruby.L1Cache_Controller.SS.Load   |           2      0.16%      0.16% |         545     43.74%     43.90% |         699     56.10%    100.00%
system.ruby.L1Cache_Controller.SS.Load::total         1246                      
system.ruby.L1Cache_Controller.SS.Inv    |          14      2.16%      2.16% |         301     46.52%     48.69% |         332     51.31%    100.00%
system.ruby.L1Cache_Controller.SS.Inv::total          647                      
system.ruby.L1Cache_Controller.SS.L1_Replacement |           0      0.00%      0.00% |        4075     49.20%     49.20% |        4207     50.80%    100.00%
system.ruby.L1Cache_Controller.SS.L1_Replacement::total         8282                      
system.ruby.L1Cache_Controller.E.WriteBack |         533      0.02%      0.02% |     1585136     49.86%     49.88% |     1593311     50.12%    100.00%
system.ruby.L1Cache_Controller.E.WriteBack::total      3178980                      
system.ruby.L1Cache_Controller.E.L0_Invalidate_Own |        6116      9.99%      9.99% |       30920     50.53%     60.52% |       24160     39.48%    100.00%
system.ruby.L1Cache_Controller.E.L0_Invalidate_Own::total        61196                      
system.ruby.L1Cache_Controller.E.L0_Invalidate_Else |         268      2.66%      2.66% |        3033     30.14%     32.81% |        6761     67.19%    100.00%
system.ruby.L1Cache_Controller.E.L0_Invalidate_Else::total        10062                      
system.ruby.L1Cache_Controller.EE.Load   |           3     37.50%     37.50% |           4     50.00%     87.50% |           1     12.50%    100.00%
system.ruby.L1Cache_Controller.EE.Load::total            8                      
system.ruby.L1Cache_Controller.EE.Inv    |         234      2.68%      2.68% |        2463     28.23%     30.91% |        6028     69.09%    100.00%
system.ruby.L1Cache_Controller.EE.Inv::total         8725                      
system.ruby.L1Cache_Controller.EE.L1_Replacement |        4890      8.24%      8.24% |       30610     51.58%     59.82% |       23845     40.18%    100.00%
system.ruby.L1Cache_Controller.EE.L1_Replacement::total        59345                      
system.ruby.L1Cache_Controller.EE.Fwd_GETX |           1     50.00%     50.00% |           1     50.00%    100.00% |           0      0.00%    100.00%
system.ruby.L1Cache_Controller.EE.Fwd_GETX::total            2                      
system.ruby.L1Cache_Controller.EE.Fwd_GETS |           4      0.32%      0.32% |         563     44.47%     44.79% |         699     55.21%    100.00%
system.ruby.L1Cache_Controller.EE.Fwd_GETS::total         1266                      
system.ruby.L1Cache_Controller.M.WriteBack |     2167705     87.10%     87.10% |      164760      6.62%     93.72% |      156396      6.28%    100.00%
system.ruby.L1Cache_Controller.M.WriteBack::total      2488861                      
system.ruby.L1Cache_Controller.M.L0_Invalidate_Own |        2784     28.75%     28.75% |        3733     38.54%     67.29% |        3168     32.71%    100.00%
system.ruby.L1Cache_Controller.M.L0_Invalidate_Own::total         9685                      
system.ruby.L1Cache_Controller.M.L0_Invalidate_Else |        1820     30.58%     30.58% |        1740     29.23%     59.81% |        2392     40.19%    100.00%
system.ruby.L1Cache_Controller.M.L0_Invalidate_Else::total         5952                      
system.ruby.L1Cache_Controller.MM.Load   |          74      0.02%      0.02% |      165033     51.28%     51.31% |      156694     48.69%    100.00%
system.ruby.L1Cache_Controller.MM.Load::total       321801                      
system.ruby.L1Cache_Controller.MM.Store  |          73     98.65%     98.65% |           1      1.35%    100.00% |           0      0.00%    100.00%
system.ruby.L1Cache_Controller.MM.Store::total           74                      
system.ruby.L1Cache_Controller.MM.Inv    |      374594     27.64%     27.64% |      490642     36.20%     63.84% |      489991     36.16%    100.00%
system.ruby.L1Cache_Controller.MM.Inv::total      1355227                      
system.ruby.L1Cache_Controller.MM.L1_Replacement |     1799268     44.93%     44.93% |     1096918     27.39%     72.32% |     1108612     27.68%    100.00%
system.ruby.L1Cache_Controller.MM.L1_Replacement::total      4004798                      
system.ruby.L1Cache_Controller.MM.Fwd_GETX |           0      0.00%      0.00% |           2    100.00%    100.00% |           0      0.00%    100.00%
system.ruby.L1Cache_Controller.MM.Fwd_GETX::total            2                      
system.ruby.L1Cache_Controller.MM.Fwd_GETS |           8      2.37%      2.37% |          12      3.55%      5.92% |         318     94.08%    100.00%
system.ruby.L1Cache_Controller.MM.Fwd_GETS::total          338                      
system.ruby.L1Cache_Controller.IS.Data_Exclusive |        7528      0.23%      0.23% |     1619577     49.81%     50.04% |     1624241     49.96%    100.00%
system.ruby.L1Cache_Controller.IS.Data_Exclusive::total      3251346                      
system.ruby.L1Cache_Controller.IS.DataS_fromL1 |          16      1.00%      1.00% |        1025     63.90%     64.90% |         563     35.10%    100.00%
system.ruby.L1Cache_Controller.IS.DataS_fromL1::total         1604                      
system.ruby.L1Cache_Controller.IS.Data_all_Acks |           2      0.03%      0.03% |        2857     47.90%     47.94% |        3105     52.06%    100.00%
system.ruby.L1Cache_Controller.IS.Data_all_Acks::total         5964                      
system.ruby.L1Cache_Controller.IM.Data_all_Acks |     2172237     99.51%     99.51% |        5326      0.24%     99.76% |        5261      0.24%    100.00%
system.ruby.L1Cache_Controller.IM.Data_all_Acks::total      2182824                      
system.ruby.L1Cache_Controller.SM.Ack    |          13     86.67%     86.67% |           1      6.67%     93.33% |           1      6.67%    100.00%
system.ruby.L1Cache_Controller.SM.Ack::total           15                      
system.ruby.L1Cache_Controller.SM.Ack_all |          12     85.71%     85.71% |           1      7.14%     92.86% |           1      7.14%    100.00%
system.ruby.L1Cache_Controller.SM.Ack_all::total           14                      
system.ruby.L1Cache_Controller.M_I.WB_Ack |     1804158     44.39%     44.39% |     1127528     27.74%     72.14% |     1132457     27.86%    100.00%
system.ruby.L1Cache_Controller.M_I.WB_Ack::total      4064143                      
system.ruby.L1Cache_Controller.S_IL0.L0_Invalidate_Own |           0      0.00%      0.00% |        4071     49.93%     49.93% |        4082     50.07%    100.00%
system.ruby.L1Cache_Controller.S_IL0.L0_Invalidate_Own::total         8153                      
system.ruby.L1Cache_Controller.S_IL0.L0_Invalidate_Else |           4      0.71%      0.71% |         279     49.64%     50.36% |         279     49.64%    100.00%
system.ruby.L1Cache_Controller.S_IL0.L0_Invalidate_Else::total          562                      
system.ruby.L1Cache_Controller.S_IL0.L0_Ack |           4      0.05%      0.05% |        4350     49.91%     49.96% |        4361     50.04%    100.00%
system.ruby.L1Cache_Controller.S_IL0.L0_Ack::total         8715                      
system.ruby.L1Cache_Controller.E_IL0.L0_DataAck |        1252     65.48%     65.48% |         312     16.32%     81.80% |         348     18.20%    100.00%
system.ruby.L1Cache_Controller.E_IL0.L0_DataAck::total         1912                      
system.ruby.L1Cache_Controller.E_IL0.L0_Invalidate_Own |        6116      9.99%      9.99% |       30920     50.53%     60.52% |       24160     39.48%    100.00%
system.ruby.L1Cache_Controller.E_IL0.L0_Invalidate_Own::total        61196                      
system.ruby.L1Cache_Controller.E_IL0.L0_Invalidate_Else |         268      2.66%      2.66% |        3033     30.14%     32.81% |        6761     67.19%    100.00%
system.ruby.L1Cache_Controller.E_IL0.L0_Invalidate_Else::total        10062                      
system.ruby.L1Cache_Controller.E_IL0.L0_Ack |        5132      7.40%      7.40% |       33641     48.51%     55.91% |       30573     44.09%    100.00%
system.ruby.L1Cache_Controller.E_IL0.L0_Ack::total        69346                      
system.ruby.L1Cache_Controller.M_IL0.L0_DataAck |        4567     31.32%     31.32% |        4944     33.91%     65.23% |        5069     34.77%    100.00%
system.ruby.L1Cache_Controller.M_IL0.L0_DataAck::total        14580                      
system.ruby.L1Cache_Controller.M_IL0.L0_Invalidate_Own |        2784     28.75%     28.75% |        3733     38.54%     67.29% |        3168     32.71%    100.00%
system.ruby.L1Cache_Controller.M_IL0.L0_Invalidate_Own::total         9685                      
system.ruby.L1Cache_Controller.M_IL0.L0_Invalidate_Else |        1820     30.58%     30.58% |        1740     29.23%     59.81% |        2392     40.19%    100.00%
system.ruby.L1Cache_Controller.M_IL0.L0_Invalidate_Else::total         5952                      
system.ruby.L1Cache_Controller.M_IL0.L0_Ack |          37      3.50%      3.50% |         529     50.05%     53.55% |         491     46.45%    100.00%
system.ruby.L1Cache_Controller.M_IL0.L0_Ack::total         1057                      
system.ruby.L2Cache_Controller.L1_GETS        3259243      0.00%      0.00%
system.ruby.L2Cache_Controller.L1_GETX        2182843      0.00%      0.00%
system.ruby.L2Cache_Controller.L1_UPGRADE           14      0.00%      0.00%
system.ruby.L2Cache_Controller.L1_PUTX        4064143      0.00%      0.00%
system.ruby.L2Cache_Controller.L2_Replacement      1450648      0.00%      0.00%
system.ruby.L2Cache_Controller.L2_Replacement_clean      2284784      0.00%      0.00%
system.ruby.L2Cache_Controller.Mem_Data       3815297      0.00%      0.00%
system.ruby.L2Cache_Controller.Mem_Ack        3735432      0.00%      0.00%
system.ruby.L2Cache_Controller.WB_Data         380119      0.00%      0.00%
system.ruby.L2Cache_Controller.WB_Data_clean       976712      0.00%      0.00%
system.ruby.L2Cache_Controller.Ack               1431      0.00%      0.00%
system.ruby.L2Cache_Controller.Ack_all          10150      0.00%      0.00%
system.ruby.L2Cache_Controller.Unblock           1604      0.00%      0.00%
system.ruby.L2Cache_Controller.Exclusive_Unblock      5434184      0.00%      0.00%
system.ruby.L2Cache_Controller.NP.L1_GETS      1635878      0.00%      0.00%
system.ruby.L2Cache_Controller.NP.L1_GETX      2179419      0.00%      0.00%
system.ruby.L2Cache_Controller.SS.L1_GETS         5898      0.00%      0.00%
system.ruby.L2Cache_Controller.SS.L1_UPGRADE           14      0.00%      0.00%
system.ruby.L2Cache_Controller.SS.L2_Replacement         1308      0.00%      0.00%
system.ruby.L2Cache_Controller.SS.L2_Replacement_clean          117      0.00%      0.00%
system.ruby.L2Cache_Controller.M.L1_GETS      1615501      0.00%      0.00%
system.ruby.L2Cache_Controller.M.L1_GETX         3401      0.00%      0.00%
system.ruby.L2Cache_Controller.M.L2_Replacement      1448611      0.00%      0.00%
system.ruby.L2Cache_Controller.M.L2_Replacement_clean       921444      0.00%      0.00%
system.ruby.L2Cache_Controller.MT.L1_GETS         1604      0.00%      0.00%
system.ruby.L2Cache_Controller.MT.L1_GETX            4      0.00%      0.00%
system.ruby.L2Cache_Controller.MT.L1_PUTX      4064143      0.00%      0.00%
system.ruby.L2Cache_Controller.MT.L2_Replacement          729      0.00%      0.00%
system.ruby.L2Cache_Controller.MT.L2_Replacement_clean      1363223      0.00%      0.00%
system.ruby.L2Cache_Controller.M_I.L1_GETS          322      0.00%      0.00%
system.ruby.L2Cache_Controller.M_I.L1_GETX           18      0.00%      0.00%
system.ruby.L2Cache_Controller.M_I.Mem_Ack      3735432      0.00%      0.00%
system.ruby.L2Cache_Controller.MT_I.WB_Data           21      0.00%      0.00%
system.ruby.L2Cache_Controller.MT_I.WB_Data_clean           71      0.00%      0.00%
system.ruby.L2Cache_Controller.MT_I.Ack_all          637      0.00%      0.00%
system.ruby.L2Cache_Controller.MCT_I.WB_Data       378817      0.00%      0.00%
system.ruby.L2Cache_Controller.MCT_I.WB_Data_clean       976318      0.00%      0.00%
system.ruby.L2Cache_Controller.MCT_I.Ack_all         8088      0.00%      0.00%
system.ruby.L2Cache_Controller.I_I.Ack            119      0.00%      0.00%
system.ruby.L2Cache_Controller.I_I.Ack_all          117      0.00%      0.00%
system.ruby.L2Cache_Controller.S_I.Ack           1312      0.00%      0.00%
system.ruby.L2Cache_Controller.S_I.Ack_all         1308      0.00%      0.00%
system.ruby.L2Cache_Controller.ISS.L1_GETS           33      0.00%      0.00%
system.ruby.L2Cache_Controller.ISS.Mem_Data      1635845      0.00%      0.00%
system.ruby.L2Cache_Controller.IS.Mem_Data           33      0.00%      0.00%
system.ruby.L2Cache_Controller.IM.L1_GETX            1      0.00%      0.00%
system.ruby.L2Cache_Controller.IM.Mem_Data      2179419      0.00%      0.00%
system.ruby.L2Cache_Controller.SS_MB.Exclusive_Unblock           14      0.00%      0.00%
system.ruby.L2Cache_Controller.MT_MB.L1_GETS            4      0.00%      0.00%
system.ruby.L2Cache_Controller.MT_MB.Exclusive_Unblock      5434170      0.00%      0.00%
system.ruby.L2Cache_Controller.MT_IIB.L1_GETS            3      0.00%      0.00%
system.ruby.L2Cache_Controller.MT_IIB.WB_Data         1262      0.00%      0.00%
system.ruby.L2Cache_Controller.MT_IIB.WB_Data_clean          323      0.00%      0.00%
system.ruby.L2Cache_Controller.MT_IIB.Unblock           19      0.00%      0.00%
system.ruby.L2Cache_Controller.MT_IB.WB_Data           19      0.00%      0.00%
system.ruby.L2Cache_Controller.MT_SB.Unblock         1585      0.00%      0.00%

---------- End Simulation Statistics   ----------
