
---------- Begin Simulation Statistics ----------
sim_seconds                                  0.798551                       # Number of seconds simulated
sim_ticks                                798550566000                       # Number of ticks simulated
final_tick                               798550566000                       # Number of ticks from beginning of simulation (restored from checkpoints and never reset)
sim_freq                                 1000000000000                       # Frequency of simulated ticks
host_inst_rate                                 152404                       # Simulator instruction rate (inst/s)
host_op_rate                                   416022                       # Simulator op (including micro ops) rate (op/s)
host_tick_rate                              252102723                       # Simulator tick rate (ticks/s)
host_mem_usage                                 962356                       # Number of bytes of host memory used
host_seconds                                  3167.56                       # Real time elapsed on the host
sim_insts                                   482749133                       # Number of instructions simulated
sim_ops                                    1317775959                       # Number of ops (including micro ops) simulated
system.voltage_domain.voltage                       1                       # Voltage in Volts
system.clk_domain.clock                          1000                       # Clock period in ticks
system.mem_ctrls.bytes_read::ruby.dir_cntrl0     28217792                       # Number of bytes read from this memory
system.mem_ctrls.bytes_read::total           28217792                       # Number of bytes read from this memory
system.mem_ctrls.num_reads::ruby.dir_cntrl0       440903                       # Number of read requests responded to by this memory
system.mem_ctrls.num_reads::total              440903                       # Number of read requests responded to by this memory
system.mem_ctrls.bw_read::ruby.dir_cntrl0     35336262                       # Total read bandwidth from this memory (bytes/s)
system.mem_ctrls.bw_read::total              35336262                       # Total read bandwidth from this memory (bytes/s)
system.mem_ctrls.bw_total::ruby.dir_cntrl0     35336262                       # Total bandwidth to/from this memory (bytes/s)
system.mem_ctrls.bw_total::total             35336262                       # Total bandwidth to/from this memory (bytes/s)
system.mem_ctrls.readReqs                      440903                       # Number of read requests accepted
system.mem_ctrls.writeReqs                          0                       # Number of write requests accepted
system.mem_ctrls.readBursts                    440903                       # Number of DRAM read bursts, including those serviced by the write queue
system.mem_ctrls.writeBursts                        0                       # Number of DRAM write bursts, including those merged in the write queue
system.mem_ctrls.bytesReadDRAM               28217792                       # Total number of bytes read from DRAM
system.mem_ctrls.bytesReadWrQ                       0                       # Total number of bytes read from write queue
system.mem_ctrls.bytesWritten                       0                       # Total number of bytes written to DRAM
system.mem_ctrls.bytesReadSys                28217792                       # Total read bytes from the system interface side
system.mem_ctrls.bytesWrittenSys                    0                       # Total written bytes from the system interface side
system.mem_ctrls.servicedByWrQ                      0                       # Number of DRAM read bursts serviced by the write queue
system.mem_ctrls.mergedWrBursts                     0                       # Number of DRAM write bursts merged with an existing one
system.mem_ctrls.neitherReadNorWriteReqs            0                       # Number of requests that are neither read nor write
system.mem_ctrls.perBankRdBursts::0             27471                       # Per bank write bursts
system.mem_ctrls.perBankRdBursts::1             27536                       # Per bank write bursts
system.mem_ctrls.perBankRdBursts::2             27379                       # Per bank write bursts
system.mem_ctrls.perBankRdBursts::3             27365                       # Per bank write bursts
system.mem_ctrls.perBankRdBursts::4             27634                       # Per bank write bursts
system.mem_ctrls.perBankRdBursts::5             27463                       # Per bank write bursts
system.mem_ctrls.perBankRdBursts::6             27583                       # Per bank write bursts
system.mem_ctrls.perBankRdBursts::7             27612                       # Per bank write bursts
system.mem_ctrls.perBankRdBursts::8             27512                       # Per bank write bursts
system.mem_ctrls.perBankRdBursts::9             27755                       # Per bank write bursts
system.mem_ctrls.perBankRdBursts::10            27757                       # Per bank write bursts
system.mem_ctrls.perBankRdBursts::11            27833                       # Per bank write bursts
system.mem_ctrls.perBankRdBursts::12            27610                       # Per bank write bursts
system.mem_ctrls.perBankRdBursts::13            27587                       # Per bank write bursts
system.mem_ctrls.perBankRdBursts::14            27483                       # Per bank write bursts
system.mem_ctrls.perBankRdBursts::15            27323                       # Per bank write bursts
system.mem_ctrls.perBankWrBursts::0                 0                       # Per bank write bursts
system.mem_ctrls.perBankWrBursts::1                 0                       # Per bank write bursts
system.mem_ctrls.perBankWrBursts::2                 0                       # Per bank write bursts
system.mem_ctrls.perBankWrBursts::3                 0                       # Per bank write bursts
system.mem_ctrls.perBankWrBursts::4                 0                       # Per bank write bursts
system.mem_ctrls.perBankWrBursts::5                 0                       # Per bank write bursts
system.mem_ctrls.perBankWrBursts::6                 0                       # Per bank write bursts
system.mem_ctrls.perBankWrBursts::7                 0                       # Per bank write bursts
system.mem_ctrls.perBankWrBursts::8                 0                       # Per bank write bursts
system.mem_ctrls.perBankWrBursts::9                 0                       # Per bank write bursts
system.mem_ctrls.perBankWrBursts::10                0                       # Per bank write bursts
system.mem_ctrls.perBankWrBursts::11                0                       # Per bank write bursts
system.mem_ctrls.perBankWrBursts::12                0                       # Per bank write bursts
system.mem_ctrls.perBankWrBursts::13                0                       # Per bank write bursts
system.mem_ctrls.perBankWrBursts::14                0                       # Per bank write bursts
system.mem_ctrls.perBankWrBursts::15                0                       # Per bank write bursts
system.mem_ctrls.numRdRetry                         0                       # Number of times read queue was full causing retry
system.mem_ctrls.numWrRetry                         0                       # Number of times write queue was full causing retry
system.mem_ctrls.totGap                  798550485500                       # Total gap between requests
system.mem_ctrls.readPktSize::0                     0                       # Read request sizes (log2)
system.mem_ctrls.readPktSize::1                     0                       # Read request sizes (log2)
system.mem_ctrls.readPktSize::2                     0                       # Read request sizes (log2)
system.mem_ctrls.readPktSize::3                     0                       # Read request sizes (log2)
system.mem_ctrls.readPktSize::4                     0                       # Read request sizes (log2)
system.mem_ctrls.readPktSize::5                     0                       # Read request sizes (log2)
system.mem_ctrls.readPktSize::6                440903                       # Read request sizes (log2)
system.mem_ctrls.writePktSize::0                    0                       # Write request sizes (log2)
system.mem_ctrls.writePktSize::1                    0                       # Write request sizes (log2)
system.mem_ctrls.writePktSize::2                    0                       # Write request sizes (log2)
system.mem_ctrls.writePktSize::3                    0                       # Write request sizes (log2)
system.mem_ctrls.writePktSize::4                    0                       # Write request sizes (log2)
system.mem_ctrls.writePktSize::5                    0                       # Write request sizes (log2)
system.mem_ctrls.writePktSize::6                    0                       # Write request sizes (log2)
system.mem_ctrls.rdQLenPdf::0                  440894                       # What read queue length does an incoming req see
system.mem_ctrls.rdQLenPdf::1                       9                       # What read queue length does an incoming req see
system.mem_ctrls.rdQLenPdf::2                       0                       # What read queue length does an incoming req see
system.mem_ctrls.rdQLenPdf::3                       0                       # What read queue length does an incoming req see
system.mem_ctrls.rdQLenPdf::4                       0                       # What read queue length does an incoming req see
system.mem_ctrls.rdQLenPdf::5                       0                       # What read queue length does an incoming req see
system.mem_ctrls.rdQLenPdf::6                       0                       # What read queue length does an incoming req see
system.mem_ctrls.rdQLenPdf::7                       0                       # What read queue length does an incoming req see
system.mem_ctrls.rdQLenPdf::8                       0                       # What read queue length does an incoming req see
system.mem_ctrls.rdQLenPdf::9                       0                       # What read queue length does an incoming req see
system.mem_ctrls.rdQLenPdf::10                      0                       # What read queue length does an incoming req see
system.mem_ctrls.rdQLenPdf::11                      0                       # What read queue length does an incoming req see
system.mem_ctrls.rdQLenPdf::12                      0                       # What read queue length does an incoming req see
system.mem_ctrls.rdQLenPdf::13                      0                       # What read queue length does an incoming req see
system.mem_ctrls.rdQLenPdf::14                      0                       # What read queue length does an incoming req see
system.mem_ctrls.rdQLenPdf::15                      0                       # What read queue length does an incoming req see
system.mem_ctrls.rdQLenPdf::16                      0                       # What read queue length does an incoming req see
system.mem_ctrls.rdQLenPdf::17                      0                       # What read queue length does an incoming req see
system.mem_ctrls.rdQLenPdf::18                      0                       # What read queue length does an incoming req see
system.mem_ctrls.rdQLenPdf::19                      0                       # What read queue length does an incoming req see
system.mem_ctrls.rdQLenPdf::20                      0                       # What read queue length does an incoming req see
system.mem_ctrls.rdQLenPdf::21                      0                       # What read queue length does an incoming req see
system.mem_ctrls.rdQLenPdf::22                      0                       # What read queue length does an incoming req see
system.mem_ctrls.rdQLenPdf::23                      0                       # What read queue length does an incoming req see
system.mem_ctrls.rdQLenPdf::24                      0                       # What read queue length does an incoming req see
system.mem_ctrls.rdQLenPdf::25                      0                       # What read queue length does an incoming req see
system.mem_ctrls.rdQLenPdf::26                      0                       # What read queue length does an incoming req see
system.mem_ctrls.rdQLenPdf::27                      0                       # What read queue length does an incoming req see
system.mem_ctrls.rdQLenPdf::28                      0                       # What read queue length does an incoming req see
system.mem_ctrls.rdQLenPdf::29                      0                       # What read queue length does an incoming req see
system.mem_ctrls.rdQLenPdf::30                      0                       # What read queue length does an incoming req see
system.mem_ctrls.rdQLenPdf::31                      0                       # What read queue length does an incoming req see
system.mem_ctrls.wrQLenPdf::0                       0                       # What write queue length does an incoming req see
system.mem_ctrls.wrQLenPdf::1                       0                       # What write queue length does an incoming req see
system.mem_ctrls.wrQLenPdf::2                       0                       # What write queue length does an incoming req see
system.mem_ctrls.wrQLenPdf::3                       0                       # What write queue length does an incoming req see
system.mem_ctrls.wrQLenPdf::4                       0                       # What write queue length does an incoming req see
system.mem_ctrls.wrQLenPdf::5                       0                       # What write queue length does an incoming req see
system.mem_ctrls.wrQLenPdf::6                       0                       # What write queue length does an incoming req see
system.mem_ctrls.wrQLenPdf::7                       0                       # What write queue length does an incoming req see
system.mem_ctrls.wrQLenPdf::8                       0                       # What write queue length does an incoming req see
system.mem_ctrls.wrQLenPdf::9                       0                       # What write queue length does an incoming req see
system.mem_ctrls.wrQLenPdf::10                      0                       # What write queue length does an incoming req see
system.mem_ctrls.wrQLenPdf::11                      0                       # What write queue length does an incoming req see
system.mem_ctrls.wrQLenPdf::12                      0                       # What write queue length does an incoming req see
system.mem_ctrls.wrQLenPdf::13                      0                       # What write queue length does an incoming req see
system.mem_ctrls.wrQLenPdf::14                      0                       # What write queue length does an incoming req see
system.mem_ctrls.wrQLenPdf::15                      0                       # What write queue length does an incoming req see
system.mem_ctrls.wrQLenPdf::16                      0                       # What write queue length does an incoming req see
system.mem_ctrls.wrQLenPdf::17                      0                       # What write queue length does an incoming req see
system.mem_ctrls.wrQLenPdf::18                      0                       # What write queue length does an incoming req see
system.mem_ctrls.wrQLenPdf::19                      0                       # What write queue length does an incoming req see
system.mem_ctrls.wrQLenPdf::20                      0                       # What write queue length does an incoming req see
system.mem_ctrls.wrQLenPdf::21                      0                       # What write queue length does an incoming req see
system.mem_ctrls.wrQLenPdf::22                      0                       # What write queue length does an incoming req see
system.mem_ctrls.wrQLenPdf::23                      0                       # What write queue length does an incoming req see
system.mem_ctrls.wrQLenPdf::24                      0                       # What write queue length does an incoming req see
system.mem_ctrls.wrQLenPdf::25                      0                       # What write queue length does an incoming req see
system.mem_ctrls.wrQLenPdf::26                      0                       # What write queue length does an incoming req see
system.mem_ctrls.wrQLenPdf::27                      0                       # What write queue length does an incoming req see
system.mem_ctrls.wrQLenPdf::28                      0                       # What write queue length does an incoming req see
system.mem_ctrls.wrQLenPdf::29                      0                       # What write queue length does an incoming req see
system.mem_ctrls.wrQLenPdf::30                      0                       # What write queue length does an incoming req see
system.mem_ctrls.wrQLenPdf::31                      0                       # What write queue length does an incoming req see
system.mem_ctrls.wrQLenPdf::32                      0                       # What write queue length does an incoming req see
system.mem_ctrls.wrQLenPdf::33                      0                       # What write queue length does an incoming req see
system.mem_ctrls.wrQLenPdf::34                      0                       # What write queue length does an incoming req see
system.mem_ctrls.wrQLenPdf::35                      0                       # What write queue length does an incoming req see
system.mem_ctrls.wrQLenPdf::36                      0                       # What write queue length does an incoming req see
system.mem_ctrls.wrQLenPdf::37                      0                       # What write queue length does an incoming req see
system.mem_ctrls.wrQLenPdf::38                      0                       # What write queue length does an incoming req see
system.mem_ctrls.wrQLenPdf::39                      0                       # What write queue length does an incoming req see
system.mem_ctrls.wrQLenPdf::40                      0                       # What write queue length does an incoming req see
system.mem_ctrls.wrQLenPdf::41                      0                       # What write queue length does an incoming req see
system.mem_ctrls.wrQLenPdf::42                      0                       # What write queue length does an incoming req see
system.mem_ctrls.wrQLenPdf::43                      0                       # What write queue length does an incoming req see
system.mem_ctrls.wrQLenPdf::44                      0                       # What write queue length does an incoming req see
system.mem_ctrls.wrQLenPdf::45                      0                       # What write queue length does an incoming req see
system.mem_ctrls.wrQLenPdf::46                      0                       # What write queue length does an incoming req see
system.mem_ctrls.wrQLenPdf::47                      0                       # What write queue length does an incoming req see
system.mem_ctrls.wrQLenPdf::48                      0                       # What write queue length does an incoming req see
system.mem_ctrls.wrQLenPdf::49                      0                       # What write queue length does an incoming req see
system.mem_ctrls.wrQLenPdf::50                      0                       # What write queue length does an incoming req see
system.mem_ctrls.wrQLenPdf::51                      0                       # What write queue length does an incoming req see
system.mem_ctrls.wrQLenPdf::52                      0                       # What write queue length does an incoming req see
system.mem_ctrls.wrQLenPdf::53                      0                       # What write queue length does an incoming req see
system.mem_ctrls.wrQLenPdf::54                      0                       # What write queue length does an incoming req see
system.mem_ctrls.wrQLenPdf::55                      0                       # What write queue length does an incoming req see
system.mem_ctrls.wrQLenPdf::56                      0                       # What write queue length does an incoming req see
system.mem_ctrls.wrQLenPdf::57                      0                       # What write queue length does an incoming req see
system.mem_ctrls.wrQLenPdf::58                      0                       # What write queue length does an incoming req see
system.mem_ctrls.wrQLenPdf::59                      0                       # What write queue length does an incoming req see
system.mem_ctrls.wrQLenPdf::60                      0                       # What write queue length does an incoming req see
system.mem_ctrls.wrQLenPdf::61                      0                       # What write queue length does an incoming req see
system.mem_ctrls.wrQLenPdf::62                      0                       # What write queue length does an incoming req see
system.mem_ctrls.wrQLenPdf::63                      0                       # What write queue length does an incoming req see
system.mem_ctrls.bytesPerActivate::samples        70203                       # Bytes accessed per row activation
system.mem_ctrls.bytesPerActivate::mean    401.942937                       # Bytes accessed per row activation
system.mem_ctrls.bytesPerActivate::gmean   346.937206                       # Bytes accessed per row activation
system.mem_ctrls.bytesPerActivate::stdev   230.263473                       # Bytes accessed per row activation
system.mem_ctrls.bytesPerActivate::0-127         1615      2.30%      2.30% # Bytes accessed per row activation
system.mem_ctrls.bytesPerActivate::128-255         2616      3.73%      6.03% # Bytes accessed per row activation
system.mem_ctrls.bytesPerActivate::256-383        40949     58.33%     64.36% # Bytes accessed per row activation
system.mem_ctrls.bytesPerActivate::384-511         5269      7.51%     71.86% # Bytes accessed per row activation
system.mem_ctrls.bytesPerActivate::512-639         5865      8.35%     80.22% # Bytes accessed per row activation
system.mem_ctrls.bytesPerActivate::640-767         5198      7.40%     87.62% # Bytes accessed per row activation
system.mem_ctrls.bytesPerActivate::768-895         4074      5.80%     93.42% # Bytes accessed per row activation
system.mem_ctrls.bytesPerActivate::896-1023         2720      3.87%     97.30% # Bytes accessed per row activation
system.mem_ctrls.bytesPerActivate::1024-1151         1897      2.70%    100.00% # Bytes accessed per row activation
system.mem_ctrls.bytesPerActivate::total        70203                       # Bytes accessed per row activation
system.mem_ctrls.totQLat                   3617610499                       # Total ticks spent queuing
system.mem_ctrls.totMemAccLat             11884541749                       # Total ticks spent from burst creation until serviced by the DRAM
system.mem_ctrls.totBusLat                 2204515000                       # Total ticks spent in databus transfers
system.mem_ctrls.avgQLat                      8205.00                       # Average queueing delay per DRAM burst
system.mem_ctrls.avgBusLat                    5000.00                       # Average bus latency per DRAM burst
system.mem_ctrls.avgMemAccLat                26955.00                       # Average memory access latency per DRAM burst
system.mem_ctrls.avgRdBW                        35.34                       # Average DRAM read bandwidth in MiByte/s
system.mem_ctrls.avgWrBW                         0.00                       # Average achieved write bandwidth in MiByte/s
system.mem_ctrls.avgRdBWSys                     35.34                       # Average system read bandwidth in MiByte/s
system.mem_ctrls.avgWrBWSys                      0.00                       # Average system write bandwidth in MiByte/s
system.mem_ctrls.peakBW                      12800.00                       # Theoretical peak bandwidth in MiByte/s
system.mem_ctrls.busUtil                         0.28                       # Data bus utilization in percentage
system.mem_ctrls.busUtilRead                     0.28                       # Data bus utilization in percentage for reads
system.mem_ctrls.busUtilWrite                    0.00                       # Data bus utilization in percentage for writes
system.mem_ctrls.avgRdQLen                       1.00                       # Average read queue length when enqueuing
system.mem_ctrls.avgWrQLen                       0.00                       # Average write queue length when enqueuing
system.mem_ctrls.readRowHits                   370697                       # Number of row buffer hits during reads
system.mem_ctrls.writeRowHits                       0                       # Number of row buffer hits during writes
system.mem_ctrls.readRowHitRate                 84.08                       # Row buffer hit rate for reads
system.mem_ctrls.writeRowHitRate                  nan                       # Row buffer hit rate for writes
system.mem_ctrls.avgGap                    1811170.45                       # Average gap between requests
system.mem_ctrls.pageHitRate                    84.08                       # Row buffer hit rate, read and write combined
system.mem_ctrls_0.actEnergy                265726440                       # Energy for activate commands per rank (pJ)
system.mem_ctrls_0.preEnergy                144989625                       # Energy for precharge commands per rank (pJ)
system.mem_ctrls_0.readEnergy              1716327600                       # Energy for read commands per rank (pJ)
system.mem_ctrls_0.writeEnergy                      0                       # Energy for write commands per rank (pJ)
system.mem_ctrls_0.refreshEnergy          52157405040                       # Energy for refresh commands per rank (pJ)
system.mem_ctrls_0.actBackEnergy         172858935015                       # Energy for active background per rank (pJ)
system.mem_ctrls_0.preBackEnergy         327499519500                       # Energy for precharge background per rank (pJ)
system.mem_ctrls_0.totalEnergy           554642903220                       # Total energy per rank (pJ)
system.mem_ctrls_0.averagePower            694.562285                       # Core power per rank (mW)
system.mem_ctrls_0.memoryStateTime::IDLE 543948794500                       # Time in different power states
system.mem_ctrls_0.memoryStateTime::REF   26665340000                       # Time in different power states
system.mem_ctrls_0.memoryStateTime::PRE_PDN            0                       # Time in different power states
system.mem_ctrls_0.memoryStateTime::ACT  227936252500                       # Time in different power states
system.mem_ctrls_0.memoryStateTime::ACT_PDN            0                       # Time in different power states
system.mem_ctrls_1.actEnergy                265008240                       # Energy for activate commands per rank (pJ)
system.mem_ctrls_1.preEnergy                144597750                       # Energy for precharge commands per rank (pJ)
system.mem_ctrls_1.readEnergy              1722692400                       # Energy for read commands per rank (pJ)
system.mem_ctrls_1.writeEnergy                      0                       # Energy for write commands per rank (pJ)
system.mem_ctrls_1.refreshEnergy          52157405040                       # Energy for refresh commands per rank (pJ)
system.mem_ctrls_1.actBackEnergy         173104328565                       # Energy for active background per rank (pJ)
system.mem_ctrls_1.preBackEnergy         327284262000                       # Energy for precharge background per rank (pJ)
system.mem_ctrls_1.totalEnergy           554678293995                       # Total energy per rank (pJ)
system.mem_ctrls_1.averagePower            694.606604                       # Core power per rank (mW)
system.mem_ctrls_1.memoryStateTime::IDLE 543588934000                       # Time in different power states
system.mem_ctrls_1.memoryStateTime::REF   26665340000                       # Time in different power states
system.mem_ctrls_1.memoryStateTime::PRE_PDN            0                       # Time in different power states
system.mem_ctrls_1.memoryStateTime::ACT  228296013500                       # Time in different power states
system.mem_ctrls_1.memoryStateTime::ACT_PDN            0                       # Time in different power states
system.cpu_voltage_domain.voltage                   1                       # Voltage in Volts
system.cpu_clk_domain.clock                       500                       # Clock period in ticks
system.cpu0.apic_clk_domain.clock                8000                       # Clock period in ticks
system.cpu0.workload.num_syscalls                 118                       # Number of system calls
system.cpu0.numCycles                      1597101132                       # number of cpu cycles simulated
system.cpu0.numWorkItemsStarted                     0                       # number of work items this cpu started
system.cpu0.numWorkItemsCompleted                   0                       # number of work items this cpu completed
system.cpu0.committedInsts                  440735687                       # Number of instructions committed
system.cpu0.committedOps                   1234060417                       # Number of ops (including micro ops) committed
system.cpu0.num_int_alu_accesses           1165579637                       # Number of integer alu accesses
system.cpu0.num_fp_alu_accesses              29078765                       # Number of float alu accesses
system.cpu0.num_func_calls                   40775436                       # number of times a function call or return occured
system.cpu0.num_conditional_control_insts     96814824                       # number of instructions that are conditional controls
system.cpu0.num_int_insts                  1165579637                       # number of integer instructions
system.cpu0.num_fp_insts                     29078765                       # number of float instructions
system.cpu0.num_int_register_reads         2459735226                       # number of times the integer registers were read
system.cpu0.num_int_register_writes        1154641810                       # number of times the integer registers were written
system.cpu0.num_fp_register_reads            46730960                       # number of times the floating registers were read
system.cpu0.num_fp_register_writes           22854312                       # number of times the floating registers were written
system.cpu0.num_cc_register_reads           986830573                       # number of times the CC registers were read
system.cpu0.num_cc_register_writes          369214796                       # number of times the CC registers were written
system.cpu0.num_mem_refs                    194630609                       # number of memory refs
system.cpu0.num_load_insts                  118932327                       # Number of load instructions
system.cpu0.num_store_insts                  75698282                       # Number of store instructions
system.cpu0.num_idle_cycles                  0.002000                       # Number of idle cycles
system.cpu0.num_busy_cycles              1597101131.998000                       # Number of busy cycles
system.cpu0.not_idle_fraction                1.000000                       # Percentage of non-idle cycles
system.cpu0.idle_fraction                    0.000000                       # Percentage of idle cycles
system.cpu0.Branches                        157137942                       # Number of branches fetched
system.cpu0.op_class::No_OpClass             23648490      1.92%      1.92% # Class of executed instruction
system.cpu0.op_class::IntAlu                891109766     72.21%     74.13% # Class of executed instruction
system.cpu0.op_class::IntMult                     342      0.00%     74.13% # Class of executed instruction
system.cpu0.op_class::IntDiv                101817714      8.25%     82.38% # Class of executed instruction
system.cpu0.op_class::FloatAdd               22853496      1.85%     84.23% # Class of executed instruction
system.cpu0.op_class::FloatCmp                      0      0.00%     84.23% # Class of executed instruction
system.cpu0.op_class::FloatCvt                      0      0.00%     84.23% # Class of executed instruction
system.cpu0.op_class::FloatMult                     0      0.00%     84.23% # Class of executed instruction
system.cpu0.op_class::FloatDiv                      0      0.00%     84.23% # Class of executed instruction
system.cpu0.op_class::FloatSqrt                     0      0.00%     84.23% # Class of executed instruction
system.cpu0.op_class::SimdAdd                       0      0.00%     84.23% # Class of executed instruction
system.cpu0.op_class::SimdAddAcc                    0      0.00%     84.23% # Class of executed instruction
system.cpu0.op_class::SimdAlu                       0      0.00%     84.23% # Class of executed instruction
system.cpu0.op_class::SimdCmp                       0      0.00%     84.23% # Class of executed instruction
system.cpu0.op_class::SimdCvt                       0      0.00%     84.23% # Class of executed instruction
system.cpu0.op_class::SimdMisc                      0      0.00%     84.23% # Class of executed instruction
system.cpu0.op_class::SimdMult                      0      0.00%     84.23% # Class of executed instruction
system.cpu0.op_class::SimdMultAcc                   0      0.00%     84.23% # Class of executed instruction
system.cpu0.op_class::SimdShift                     0      0.00%     84.23% # Class of executed instruction
system.cpu0.op_class::SimdShiftAcc                  0      0.00%     84.23% # Class of executed instruction
system.cpu0.op_class::SimdSqrt                      0      0.00%     84.23% # Class of executed instruction
system.cpu0.op_class::SimdFloatAdd                  0      0.00%     84.23% # Class of executed instruction
system.cpu0.op_class::SimdFloatAlu                  0      0.00%     84.23% # Class of executed instruction
system.cpu0.op_class::SimdFloatCmp                  0      0.00%     84.23% # Class of executed instruction
system.cpu0.op_class::SimdFloatCvt                  0      0.00%     84.23% # Class of executed instruction
system.cpu0.op_class::SimdFloatDiv                  0      0.00%     84.23% # Class of executed instruction
system.cpu0.op_class::SimdFloatMisc                 0      0.00%     84.23% # Class of executed instruction
system.cpu0.op_class::SimdFloatMult                 0      0.00%     84.23% # Class of executed instruction
system.cpu0.op_class::SimdFloatMultAcc              0      0.00%     84.23% # Class of executed instruction
system.cpu0.op_class::SimdFloatSqrt                 0      0.00%     84.23% # Class of executed instruction
system.cpu0.op_class::MemRead               118932327      9.64%     93.87% # Class of executed instruction
system.cpu0.op_class::MemWrite               75698282      6.13%    100.00% # Class of executed instruction
system.cpu0.op_class::IprAccess                     0      0.00%    100.00% # Class of executed instruction
system.cpu0.op_class::InstPrefetch                  0      0.00%    100.00% # Class of executed instruction
system.cpu0.op_class::total                1234060417                       # Class of executed instruction
system.cpu1.apic_clk_domain.clock                8000                       # Clock period in ticks
system.cpu1.numCycles                      1595968296                       # number of cpu cycles simulated
system.cpu1.numWorkItemsStarted                     0                       # number of work items this cpu started
system.cpu1.numWorkItemsCompleted                   0                       # number of work items this cpu completed
system.cpu1.committedInsts                   21006723                       # Number of instructions committed
system.cpu1.committedOps                     41857771                       # Number of ops (including micro ops) committed
system.cpu1.num_int_alu_accesses             32737311                       # Number of integer alu accesses
system.cpu1.num_fp_alu_accesses              22882035                       # Number of float alu accesses
system.cpu1.num_func_calls                      40531                       # number of times a function call or return occured
system.cpu1.num_conditional_control_insts      2310570                       # number of instructions that are conditional controls
system.cpu1.num_int_insts                    32737311                       # number of integer instructions
system.cpu1.num_fp_insts                     22882035                       # number of float instructions
system.cpu1.num_int_register_reads           63226277                       # number of times the integer registers were read
system.cpu1.num_int_register_writes          16641619                       # number of times the integer registers were written
system.cpu1.num_fp_register_reads            31860914                       # number of times the floating registers were read
system.cpu1.num_fp_register_writes           18261133                       # number of times the floating registers were written
system.cpu1.num_cc_register_reads            13883680                       # number of times the CC registers were read
system.cpu1.num_cc_register_writes           13877323                       # number of times the CC registers were written
system.cpu1.num_mem_refs                     13842900                       # number of memory refs
system.cpu1.num_load_insts                    9201655                       # Number of load instructions
system.cpu1.num_store_insts                   4641245                       # Number of store instructions
system.cpu1.num_idle_cycles              1500168926.455291                       # Number of idle cycles
system.cpu1.num_busy_cycles              95799369.544709                       # Number of busy cycles
system.cpu1.not_idle_fraction                0.060026                       # Percentage of non-idle cycles
system.cpu1.idle_fraction                    0.939974                       # Percentage of idle cycles
system.cpu1.Branches                          2371387                       # Number of branches fetched
system.cpu1.op_class::No_OpClass                    2      0.00%      0.00% # Class of executed instruction
system.cpu1.op_class::IntAlu                 18836779     45.00%     45.00% # Class of executed instruction
system.cpu1.op_class::IntMult                   57612      0.14%     45.14% # Class of executed instruction
system.cpu1.op_class::IntDiv                       14      0.00%     45.14% # Class of executed instruction
system.cpu1.op_class::FloatAdd                9120464     21.79%     66.93% # Class of executed instruction
system.cpu1.op_class::FloatCmp                      0      0.00%     66.93% # Class of executed instruction
system.cpu1.op_class::FloatCvt                      0      0.00%     66.93% # Class of executed instruction
system.cpu1.op_class::FloatMult                     0      0.00%     66.93% # Class of executed instruction
system.cpu1.op_class::FloatDiv                      0      0.00%     66.93% # Class of executed instruction
system.cpu1.op_class::FloatSqrt                     0      0.00%     66.93% # Class of executed instruction
system.cpu1.op_class::SimdAdd                       0      0.00%     66.93% # Class of executed instruction
system.cpu1.op_class::SimdAddAcc                    0      0.00%     66.93% # Class of executed instruction
system.cpu1.op_class::SimdAlu                       0      0.00%     66.93% # Class of executed instruction
system.cpu1.op_class::SimdCmp                       0      0.00%     66.93% # Class of executed instruction
system.cpu1.op_class::SimdCvt                       0      0.00%     66.93% # Class of executed instruction
system.cpu1.op_class::SimdMisc                      0      0.00%     66.93% # Class of executed instruction
system.cpu1.op_class::SimdMult                      0      0.00%     66.93% # Class of executed instruction
system.cpu1.op_class::SimdMultAcc                   0      0.00%     66.93% # Class of executed instruction
system.cpu1.op_class::SimdShift                     0      0.00%     66.93% # Class of executed instruction
system.cpu1.op_class::SimdShiftAcc                  0      0.00%     66.93% # Class of executed instruction
system.cpu1.op_class::SimdSqrt                      0      0.00%     66.93% # Class of executed instruction
system.cpu1.op_class::SimdFloatAdd                  0      0.00%     66.93% # Class of executed instruction
system.cpu1.op_class::SimdFloatAlu                  0      0.00%     66.93% # Class of executed instruction
system.cpu1.op_class::SimdFloatCmp                  0      0.00%     66.93% # Class of executed instruction
system.cpu1.op_class::SimdFloatCvt                  0      0.00%     66.93% # Class of executed instruction
system.cpu1.op_class::SimdFloatDiv                  0      0.00%     66.93% # Class of executed instruction
system.cpu1.op_class::SimdFloatMisc                 0      0.00%     66.93% # Class of executed instruction
system.cpu1.op_class::SimdFloatMult                 0      0.00%     66.93% # Class of executed instruction
system.cpu1.op_class::SimdFloatMultAcc              0      0.00%     66.93% # Class of executed instruction
system.cpu1.op_class::SimdFloatSqrt                 0      0.00%     66.93% # Class of executed instruction
system.cpu1.op_class::MemRead                 9201655     21.98%     88.91% # Class of executed instruction
system.cpu1.op_class::MemWrite                4641245     11.09%    100.00% # Class of executed instruction
system.cpu1.op_class::IprAccess                     0      0.00%    100.00% # Class of executed instruction
system.cpu1.op_class::InstPrefetch                  0      0.00%    100.00% # Class of executed instruction
system.cpu1.op_class::total                  41857771                       # Class of executed instruction
system.cpu2.apic_clk_domain.clock                8000                       # Clock period in ticks
system.cpu2.numCycles                      1596867209                       # number of cpu cycles simulated
system.cpu2.numWorkItemsStarted                     0                       # number of work items this cpu started
system.cpu2.numWorkItemsCompleted                   0                       # number of work items this cpu completed
system.cpu2.committedInsts                   21006723                       # Number of instructions committed
system.cpu2.committedOps                     41857771                       # Number of ops (including micro ops) committed
system.cpu2.num_int_alu_accesses             32737311                       # Number of integer alu accesses
system.cpu2.num_fp_alu_accesses              22882035                       # Number of float alu accesses
system.cpu2.num_func_calls                      40531                       # number of times a function call or return occured
system.cpu2.num_conditional_control_insts      2310570                       # number of instructions that are conditional controls
system.cpu2.num_int_insts                    32737311                       # number of integer instructions
system.cpu2.num_fp_insts                     22882035                       # number of float instructions
system.cpu2.num_int_register_reads           63226277                       # number of times the integer registers were read
system.cpu2.num_int_register_writes          16641619                       # number of times the integer registers were written
system.cpu2.num_fp_register_reads            31860914                       # number of times the floating registers were read
system.cpu2.num_fp_register_writes           18261133                       # number of times the floating registers were written
system.cpu2.num_cc_register_reads            13883680                       # number of times the CC registers were read
system.cpu2.num_cc_register_writes           13877323                       # number of times the CC registers were written
system.cpu2.num_mem_refs                     13842900                       # number of memory refs
system.cpu2.num_load_insts                    9201655                       # Number of load instructions
system.cpu2.num_store_insts                   4641245                       # Number of store instructions
system.cpu2.num_idle_cycles              1500115829.983764                       # Number of idle cycles
system.cpu2.num_busy_cycles              96751379.016236                       # Number of busy cycles
system.cpu2.not_idle_fraction                0.060588                       # Percentage of non-idle cycles
system.cpu2.idle_fraction                    0.939412                       # Percentage of idle cycles
system.cpu2.Branches                          2371387                       # Number of branches fetched
system.cpu2.op_class::No_OpClass                    2      0.00%      0.00% # Class of executed instruction
system.cpu2.op_class::IntAlu                 18836779     45.00%     45.00% # Class of executed instruction
system.cpu2.op_class::IntMult                   57612      0.14%     45.14% # Class of executed instruction
system.cpu2.op_class::IntDiv                       14      0.00%     45.14% # Class of executed instruction
system.cpu2.op_class::FloatAdd                9120464     21.79%     66.93% # Class of executed instruction
system.cpu2.op_class::FloatCmp                      0      0.00%     66.93% # Class of executed instruction
system.cpu2.op_class::FloatCvt                      0      0.00%     66.93% # Class of executed instruction
system.cpu2.op_class::FloatMult                     0      0.00%     66.93% # Class of executed instruction
system.cpu2.op_class::FloatDiv                      0      0.00%     66.93% # Class of executed instruction
system.cpu2.op_class::FloatSqrt                     0      0.00%     66.93% # Class of executed instruction
system.cpu2.op_class::SimdAdd                       0      0.00%     66.93% # Class of executed instruction
system.cpu2.op_class::SimdAddAcc                    0      0.00%     66.93% # Class of executed instruction
system.cpu2.op_class::SimdAlu                       0      0.00%     66.93% # Class of executed instruction
system.cpu2.op_class::SimdCmp                       0      0.00%     66.93% # Class of executed instruction
system.cpu2.op_class::SimdCvt                       0      0.00%     66.93% # Class of executed instruction
system.cpu2.op_class::SimdMisc                      0      0.00%     66.93% # Class of executed instruction
system.cpu2.op_class::SimdMult                      0      0.00%     66.93% # Class of executed instruction
system.cpu2.op_class::SimdMultAcc                   0      0.00%     66.93% # Class of executed instruction
system.cpu2.op_class::SimdShift                     0      0.00%     66.93% # Class of executed instruction
system.cpu2.op_class::SimdShiftAcc                  0      0.00%     66.93% # Class of executed instruction
system.cpu2.op_class::SimdSqrt                      0      0.00%     66.93% # Class of executed instruction
system.cpu2.op_class::SimdFloatAdd                  0      0.00%     66.93% # Class of executed instruction
system.cpu2.op_class::SimdFloatAlu                  0      0.00%     66.93% # Class of executed instruction
system.cpu2.op_class::SimdFloatCmp                  0      0.00%     66.93% # Class of executed instruction
system.cpu2.op_class::SimdFloatCvt                  0      0.00%     66.93% # Class of executed instruction
system.cpu2.op_class::SimdFloatDiv                  0      0.00%     66.93% # Class of executed instruction
system.cpu2.op_class::SimdFloatMisc                 0      0.00%     66.93% # Class of executed instruction
system.cpu2.op_class::SimdFloatMult                 0      0.00%     66.93% # Class of executed instruction
system.cpu2.op_class::SimdFloatMultAcc              0      0.00%     66.93% # Class of executed instruction
system.cpu2.op_class::SimdFloatSqrt                 0      0.00%     66.93% # Class of executed instruction
system.cpu2.op_class::MemRead                 9201655     21.98%     88.91% # Class of executed instruction
system.cpu2.op_class::MemWrite                4641245     11.09%    100.00% # Class of executed instruction
system.cpu2.op_class::IprAccess                     0      0.00%    100.00% # Class of executed instruction
system.cpu2.op_class::InstPrefetch                  0      0.00%    100.00% # Class of executed instruction
system.cpu2.op_class::total                  41857771                       # Class of executed instruction
system.ruby.clk_domain.clock                      500                       # Clock period in ticks
system.ruby.delayHist::bucket_size                  4                       # delay histogram for all message
system.ruby.delayHist::max_bucket                  39                       # delay histogram for all message
system.ruby.delayHist::samples               11921971                       # delay histogram for all message
system.ruby.delayHist::mean                  0.800060                       # delay histogram for all message
system.ruby.delayHist::stdev                 2.426969                       # delay histogram for all message
system.ruby.delayHist                    |    10741841     90.10%     90.10% |       12592      0.11%     90.21% |     1157579      9.71%     99.92% |        1609      0.01%     99.93% |        7683      0.06%     99.99% |         542      0.00%    100.00% |         125      0.00%    100.00% |           0      0.00%    100.00% |           0      0.00%    100.00% |           0      0.00%    100.00% # delay histogram for all message
system.ruby.delayHist::total                 11921971                       # delay histogram for all message
system.ruby.outstanding_req_hist::bucket_size            1                      
system.ruby.outstanding_req_hist::max_bucket            9                      
system.ruby.outstanding_req_hist::samples    848965271                      
system.ruby.outstanding_req_hist::mean       1.000261                      
system.ruby.outstanding_req_hist::gmean      1.000181                      
system.ruby.outstanding_req_hist::stdev      0.016141                      
system.ruby.outstanding_req_hist         |           0      0.00%      0.00% |   848744023     99.97%     99.97% |      221248      0.03%    100.00% |           0      0.00%    100.00% |           0      0.00%    100.00% |           0      0.00%    100.00% |           0      0.00%    100.00% |           0      0.00%    100.00% |           0      0.00%    100.00% |           0      0.00%    100.00%
system.ruby.outstanding_req_hist::total     848965271                      
system.ruby.latency_hist::bucket_size             128                      
system.ruby.latency_hist::max_bucket             1279                      
system.ruby.latency_hist::samples           848965271                      
system.ruby.latency_hist::mean               1.108483                      
system.ruby.latency_hist::gmean              1.008197                      
system.ruby.latency_hist::stdev              3.607795                      
system.ruby.latency_hist                 |   848895064     99.99%     99.99% |       56500      0.01%    100.00% |        2412      0.00%    100.00% |        2105      0.00%    100.00% |        8087      0.00%    100.00% |        1103      0.00%    100.00% |           0      0.00%    100.00% |           0      0.00%    100.00% |           0      0.00%    100.00% |           0      0.00%    100.00%
system.ruby.latency_hist::total             848965271                      
system.ruby.hit_latency_hist::bucket_size          128                      
system.ruby.hit_latency_hist::max_bucket         1279                      
system.ruby.hit_latency_hist::samples       848965271                      
system.ruby.hit_latency_hist::mean           1.108483                      
system.ruby.hit_latency_hist::gmean          1.008197                      
system.ruby.hit_latency_hist::stdev          3.607795                      
system.ruby.hit_latency_hist             |   848895064     99.99%     99.99% |       56500      0.01%    100.00% |        2412      0.00%    100.00% |        2105      0.00%    100.00% |        8087      0.00%    100.00% |        1103      0.00%    100.00% |           0      0.00%    100.00% |           0      0.00%    100.00% |           0      0.00%    100.00% |           0      0.00%    100.00%
system.ruby.hit_latency_hist::total         848965271                      
system.ruby.l0_cntrl0.Dcache.demand_hits    194057445                       # Number of cache demand hits
system.ruby.l0_cntrl0.Dcache.demand_misses       573228                       # Number of cache demand misses
system.ruby.l0_cntrl0.Dcache.demand_accesses    194630673                       # Number of cache demand accesses
system.ruby.l0_cntrl0.Icache.demand_hits    572703295                       # Number of cache demand hits
system.ruby.l0_cntrl0.Icache.demand_misses         2303                       # Number of cache demand misses
system.ruby.l0_cntrl0.Icache.demand_accesses    572705598                       # Number of cache demand accesses
system.ruby.l0_cntrl0.Zcache.demand_hits            0                       # Number of cache demand hits
system.ruby.l0_cntrl0.Zcache.demand_misses            0                       # Number of cache demand misses
system.ruby.l0_cntrl0.Zcache.demand_accesses            0                       # Number of cache demand accesses
system.ruby.l0_cntrl1.Dcache.demand_hits     13234114                       # Number of cache demand hits
system.ruby.l0_cntrl1.Dcache.demand_misses       719378                       # Number of cache demand misses
system.ruby.l0_cntrl1.Dcache.demand_accesses     13953492                       # Number of cache demand accesses
system.ruby.l0_cntrl1.Icache.demand_hits     26860554                       # Number of cache demand hits
system.ruby.l0_cntrl1.Icache.demand_misses          454                       # Number of cache demand misses
system.ruby.l0_cntrl1.Icache.demand_accesses     26861008                       # Number of cache demand accesses
system.ruby.l0_cntrl1.Zcache.demand_hits            0                       # Number of cache demand hits
system.ruby.l0_cntrl1.Zcache.demand_misses            0                       # Number of cache demand misses
system.ruby.l0_cntrl1.Zcache.demand_accesses            0                       # Number of cache demand accesses
system.ruby.l0_cntrl2.Dcache.demand_hits     13211343                       # Number of cache demand hits
system.ruby.l0_cntrl2.Dcache.demand_misses       742149                       # Number of cache demand misses
system.ruby.l0_cntrl2.Dcache.demand_accesses     13953492                       # Number of cache demand accesses
system.ruby.l0_cntrl2.Icache.demand_hits     26860561                       # Number of cache demand hits
system.ruby.l0_cntrl2.Icache.demand_misses          447                       # Number of cache demand misses
system.ruby.l0_cntrl2.Icache.demand_accesses     26861008                       # Number of cache demand accesses
system.ruby.l0_cntrl2.Zcache.demand_hits            0                       # Number of cache demand hits
system.ruby.l0_cntrl2.Zcache.demand_misses            0                       # Number of cache demand misses
system.ruby.l0_cntrl2.Zcache.demand_accesses            0                       # Number of cache demand accesses
system.ruby.l1_cntrl0.cache.demand_hits           101                       # Number of cache demand hits
system.ruby.l1_cntrl0.cache.demand_misses       575430                       # Number of cache demand misses
system.ruby.l1_cntrl0.cache.demand_accesses       575531                       # Number of cache demand accesses
system.ruby.l1_cntrl1.cache.demand_hits         73873                       # Number of cache demand hits
system.ruby.l1_cntrl1.cache.demand_misses       645959                       # Number of cache demand misses
system.ruby.l1_cntrl1.cache.demand_accesses       719832                       # Number of cache demand accesses
system.ruby.l1_cntrl2.cache.demand_hits         72472                       # Number of cache demand hits
system.ruby.l1_cntrl2.cache.demand_misses       670124                       # Number of cache demand misses
system.ruby.l1_cntrl2.cache.demand_accesses       742596                       # Number of cache demand accesses
system.ruby.l2_cntrl0.L2cache.demand_hits      1410859                       # Number of cache demand hits
system.ruby.l2_cntrl0.L2cache.demand_misses       480654                       # Number of cache demand misses
system.ruby.l2_cntrl0.L2cache.demand_accesses      1891513                       # Number of cache demand accesses
system.ruby.memctrl_clk_domain.clock             1500                       # Clock period in ticks
system.ruby.network.routers0.percent_links_utilized            0                      
system.ruby.network.routers1.percent_links_utilized            0                      
system.ruby.network.routers2.percent_links_utilized            0                      
system.ruby.network.routers3.percent_links_utilized     0.190384                      
system.ruby.network.routers3.msg_count.Control::0       575430                      
system.ruby.network.routers3.msg_count.Request_Control::2        16182                      
system.ruby.network.routers3.msg_count.Response_Data::1       591631                      
system.ruby.network.routers3.msg_count.Response_Control::1       574613                      
system.ruby.network.routers3.msg_count.Response_Control::2       575417                      
system.ruby.network.routers3.msg_count.Writeback_Data::0       566211                      
system.ruby.network.routers3.msg_count.Writeback_Control::0          269                      
system.ruby.network.routers3.msg_bytes.Control::0      4603440                      
system.ruby.network.routers3.msg_bytes.Request_Control::2       129456                      
system.ruby.network.routers3.msg_bytes.Response_Data::1     42597432                      
system.ruby.network.routers3.msg_bytes.Response_Control::1      4596904                      
system.ruby.network.routers3.msg_bytes.Response_Control::2      4603336                      
system.ruby.network.routers3.msg_bytes.Writeback_Data::0     40767192                      
system.ruby.network.routers3.msg_bytes.Writeback_Control::0         2152                      
system.ruby.network.routers4.percent_links_utilized     0.169304                      
system.ruby.network.routers4.msg_count.Control::0       645959                      
system.ruby.network.routers4.msg_count.Request_Control::2        63192                      
system.ruby.network.routers4.msg_count.Response_Data::1       701430                      
system.ruby.network.routers4.msg_count.Response_Control::1       649194                      
system.ruby.network.routers4.msg_count.Response_Control::2       645470                      
system.ruby.network.routers4.msg_count.Writeback_Data::0       237126                      
system.ruby.network.routers4.msg_count.Writeback_Control::0       364990                      
system.ruby.network.routers4.msg_bytes.Control::0      5167672                      
system.ruby.network.routers4.msg_bytes.Request_Control::2       505536                      
system.ruby.network.routers4.msg_bytes.Response_Data::1     50502960                      
system.ruby.network.routers4.msg_bytes.Response_Control::1      5193552                      
system.ruby.network.routers4.msg_bytes.Response_Control::2      5163760                      
system.ruby.network.routers4.msg_bytes.Writeback_Data::0     17073072                      
system.ruby.network.routers4.msg_bytes.Writeback_Control::0      2919920                      
system.ruby.network.routers5.percent_links_utilized     0.164712                      
system.ruby.network.routers5.msg_count.Control::0       670124                      
system.ruby.network.routers5.msg_count.Request_Control::2           43                      
system.ruby.network.routers5.msg_count.Response_Data::1       638260                      
system.ruby.network.routers5.msg_count.Response_Control::1       693336                      
system.ruby.network.routers5.msg_count.Response_Control::2       669625                      
system.ruby.network.routers5.msg_count.Writeback_Data::0       264433                      
system.ruby.network.routers5.msg_count.Writeback_Control::0       365100                      
system.ruby.network.routers5.msg_bytes.Control::0      5360992                      
system.ruby.network.routers5.msg_bytes.Request_Control::2          344                      
system.ruby.network.routers5.msg_bytes.Response_Data::1     45954720                      
system.ruby.network.routers5.msg_bytes.Response_Control::1      5546688                      
system.ruby.network.routers5.msg_bytes.Response_Control::2      5357000                      
system.ruby.network.routers5.msg_bytes.Writeback_Data::0     19039176                      
system.ruby.network.routers5.msg_bytes.Writeback_Control::0      2920800                      
system.ruby.network.routers6.percent_links_utilized     0.580974                      
system.ruby.network.routers6.msg_count.Control::0      2332416                      
system.ruby.network.routers6.msg_count.Request_Control::2        79408                      
system.ruby.network.routers6.msg_count.Response_Data::1      2292731                      
system.ruby.network.routers6.msg_count.Response_Control::1      1837793                      
system.ruby.network.routers6.msg_count.Response_Control::2      1890512                      
system.ruby.network.routers6.msg_count.Writeback_Data::0      1067770                      
system.ruby.network.routers6.msg_count.Writeback_Control::0       730359                      
system.ruby.network.routers6.msg_bytes.Control::0     18659328                      
system.ruby.network.routers6.msg_bytes.Request_Control::2       635264                      
system.ruby.network.routers6.msg_bytes.Response_Data::1    165076632                      
system.ruby.network.routers6.msg_bytes.Response_Control::1     14702344                      
system.ruby.network.routers6.msg_bytes.Response_Control::2     15124096                      
system.ruby.network.routers6.msg_bytes.Writeback_Data::0     76879440                      
system.ruby.network.routers6.msg_bytes.Writeback_Control::0      5842872                      
system.ruby.network.routers7.percent_links_utilized     0.069016                      
system.ruby.network.routers7.msg_count.Control::0       440903                      
system.ruby.network.routers7.msg_count.Response_Data::1       440903                      
system.ruby.network.routers7.msg_bytes.Control::0      3527224                      
system.ruby.network.routers7.msg_bytes.Response_Data::1     31745016                      
system.ruby.network.routers8.percent_links_utilized     0.146799                      
system.ruby.network.routers8.msg_count.Control::0      2332416                      
system.ruby.network.routers8.msg_count.Request_Control::2        79417                      
system.ruby.network.routers8.msg_count.Response_Data::1      2332482                      
system.ruby.network.routers8.msg_count.Response_Control::1      1877468                      
system.ruby.network.routers8.msg_count.Response_Control::2      1890512                      
system.ruby.network.routers8.msg_count.Writeback_Data::0      1067770                      
system.ruby.network.routers8.msg_count.Writeback_Control::0       730359                      
system.ruby.network.routers8.msg_bytes.Control::0     18659328                      
system.ruby.network.routers8.msg_bytes.Request_Control::2       635336                      
system.ruby.network.routers8.msg_bytes.Response_Data::1    167938704                      
system.ruby.network.routers8.msg_bytes.Response_Control::1     15019744                      
system.ruby.network.routers8.msg_bytes.Response_Control::2     15124096                      
system.ruby.network.routers8.msg_bytes.Writeback_Data::0     76879440                      
system.ruby.network.routers8.msg_bytes.Writeback_Control::0      5842872                      
system.ruby.network.msg_count.Control         6997248                      
system.ruby.network.msg_count.Request_Control       238242                      
system.ruby.network.msg_count.Response_Data      6997437                      
system.ruby.network.msg_count.Response_Control     11303940                      
system.ruby.network.msg_count.Writeback_Data      3203310                      
system.ruby.network.msg_count.Writeback_Control      2191077                      
system.ruby.network.msg_byte.Control         55977984                      
system.ruby.network.msg_byte.Request_Control      1905936                      
system.ruby.network.msg_byte.Response_Data    503815464                      
system.ruby.network.msg_byte.Response_Control     90431520                      
system.ruby.network.msg_byte.Writeback_Data    230638320                      
system.ruby.network.msg_byte.Writeback_Control     17528616                      
system.ruby.network.routers0.throttle0.link_utilization            0                      
system.ruby.network.routers0.throttle1.link_utilization            0                      
system.ruby.network.routers1.throttle0.link_utilization            0                      
system.ruby.network.routers1.throttle1.link_utilization            0                      
system.ruby.network.routers2.throttle0.link_utilization            0                      
system.ruby.network.routers2.throttle1.link_utilization            0                      
system.ruby.network.routers3.throttle0.link_utilization     0.180369                      
system.ruby.network.routers3.throttle0.msg_count.Request_Control::2        16182                      
system.ruby.network.routers3.throttle0.msg_count.Response_Data::1       575401                      
system.ruby.network.routers3.throttle0.msg_count.Response_Control::1       566546                      
system.ruby.network.routers3.throttle0.msg_bytes.Request_Control::2       129456                      
system.ruby.network.routers3.throttle0.msg_bytes.Response_Data::1     41428872                      
system.ruby.network.routers3.throttle0.msg_bytes.Response_Control::1      4532368                      
system.ruby.network.routers3.throttle1.link_utilization     0.200399                      
system.ruby.network.routers3.throttle1.msg_count.Control::0       575430                      
system.ruby.network.routers3.throttle1.msg_count.Response_Data::1        16230                      
system.ruby.network.routers3.throttle1.msg_count.Response_Control::1         8067                      
system.ruby.network.routers3.throttle1.msg_count.Response_Control::2       575417                      
system.ruby.network.routers3.throttle1.msg_count.Writeback_Data::0       566211                      
system.ruby.network.routers3.throttle1.msg_count.Writeback_Control::0          269                      
system.ruby.network.routers3.throttle1.msg_bytes.Control::0      4603440                      
system.ruby.network.routers3.throttle1.msg_bytes.Response_Data::1      1168560                      
system.ruby.network.routers3.throttle1.msg_bytes.Response_Control::1        64536                      
system.ruby.network.routers3.throttle1.msg_bytes.Response_Control::2      4603336                      
system.ruby.network.routers3.throttle1.msg_bytes.Writeback_Data::0     40767192                      
system.ruby.network.routers3.throttle1.msg_bytes.Writeback_Control::0         2152                      
system.ruby.network.routers4.throttle0.link_utilization     0.201136                      
system.ruby.network.routers4.throttle0.msg_count.Request_Control::2        63192                      
system.ruby.network.routers4.throttle0.msg_count.Response_Data::1       638210                      
system.ruby.network.routers4.throttle0.msg_count.Response_Control::1       617616                      
system.ruby.network.routers4.throttle0.msg_bytes.Request_Control::2       505536                      
system.ruby.network.routers4.throttle0.msg_bytes.Response_Data::1     45951120                      
system.ruby.network.routers4.throttle0.msg_bytes.Response_Control::1      4940928                      
system.ruby.network.routers4.throttle1.link_utilization     0.137471                      
system.ruby.network.routers4.throttle1.msg_count.Control::0       645959                      
system.ruby.network.routers4.throttle1.msg_count.Response_Data::1        63220                      
system.ruby.network.routers4.throttle1.msg_count.Response_Control::1        31578                      
system.ruby.network.routers4.throttle1.msg_count.Response_Control::2       645470                      
system.ruby.network.routers4.throttle1.msg_count.Writeback_Data::0       237126                      
system.ruby.network.routers4.throttle1.msg_count.Writeback_Control::0       364990                      
system.ruby.network.routers4.throttle1.msg_bytes.Control::0      5167672                      
system.ruby.network.routers4.throttle1.msg_bytes.Response_Data::1      4551840                      
system.ruby.network.routers4.throttle1.msg_bytes.Response_Control::1       252624                      
system.ruby.network.routers4.throttle1.msg_bytes.Response_Control::2      5163760                      
system.ruby.network.routers4.throttle1.msg_bytes.Writeback_Data::0     17073072                      
system.ruby.network.routers4.throttle1.msg_bytes.Writeback_Control::0      2919920                      
system.ruby.network.routers5.throttle0.link_utilization     0.201537                      
system.ruby.network.routers5.throttle0.msg_count.Request_Control::2           43                      
system.ruby.network.routers5.throttle0.msg_count.Response_Data::1       638238                      
system.ruby.network.routers5.throttle0.msg_count.Response_Control::1       693306                      
system.ruby.network.routers5.throttle0.msg_bytes.Request_Control::2          344                      
system.ruby.network.routers5.throttle0.msg_bytes.Response_Data::1     45953136                      
system.ruby.network.routers5.throttle0.msg_bytes.Response_Control::1      5546448                      
system.ruby.network.routers5.throttle1.link_utilization     0.127887                      
system.ruby.network.routers5.throttle1.msg_count.Control::0       670124                      
system.ruby.network.routers5.throttle1.msg_count.Response_Data::1           22                      
system.ruby.network.routers5.throttle1.msg_count.Response_Control::1           30                      
system.ruby.network.routers5.throttle1.msg_count.Response_Control::2       669625                      
system.ruby.network.routers5.throttle1.msg_count.Writeback_Data::0       264433                      
system.ruby.network.routers5.throttle1.msg_count.Writeback_Control::0       365100                      
system.ruby.network.routers5.throttle1.msg_bytes.Control::0      5360992                      
system.ruby.network.routers5.throttle1.msg_bytes.Response_Data::1         1584                      
system.ruby.network.routers5.throttle1.msg_bytes.Response_Control::1          240                      
system.ruby.network.routers5.throttle1.msg_bytes.Response_Control::2      5357000                      
system.ruby.network.routers5.throttle1.msg_bytes.Writeback_Data::0     19039176                      
system.ruby.network.routers5.throttle1.msg_bytes.Writeback_Control::0      2920800                      
system.ruby.network.routers6.throttle0.link_utilization     0.577547                      
system.ruby.network.routers6.throttle0.msg_count.Control::0      1891513                      
system.ruby.network.routers6.throttle0.msg_count.Response_Data::1       480633                      
system.ruby.network.routers6.throttle0.msg_count.Response_Control::2      1890512                      
system.ruby.network.routers6.throttle0.msg_count.Writeback_Data::0      1067770                      
system.ruby.network.routers6.throttle0.msg_count.Writeback_Control::0       730359                      
system.ruby.network.routers6.throttle0.msg_bytes.Control::0     15132104                      
system.ruby.network.routers6.throttle0.msg_bytes.Response_Data::1     34605576                      
system.ruby.network.routers6.throttle0.msg_bytes.Response_Control::2     15124096                      
system.ruby.network.routers6.throttle0.msg_bytes.Writeback_Data::0     76879440                      
system.ruby.network.routers6.throttle0.msg_bytes.Writeback_Control::0      5842872                      
system.ruby.network.routers6.throttle1.link_utilization     0.584402                      
system.ruby.network.routers6.throttle1.msg_count.Control::0       440903                      
system.ruby.network.routers6.throttle1.msg_count.Request_Control::2        79408                      
system.ruby.network.routers6.throttle1.msg_count.Response_Data::1      1812098                      
system.ruby.network.routers6.throttle1.msg_count.Response_Control::1      1837793                      
system.ruby.network.routers6.throttle1.msg_bytes.Control::0      3527224                      
system.ruby.network.routers6.throttle1.msg_bytes.Request_Control::2       635264                      
system.ruby.network.routers6.throttle1.msg_bytes.Response_Data::1    130471056                      
system.ruby.network.routers6.throttle1.msg_bytes.Response_Control::1     14702344                      
system.ruby.network.routers7.throttle0.link_utilization     0.013803                      
system.ruby.network.routers7.throttle0.msg_count.Control::0       440903                      
system.ruby.network.routers7.throttle0.msg_bytes.Control::0      3527224                      
system.ruby.network.routers7.throttle1.link_utilization     0.124229                      
system.ruby.network.routers7.throttle1.msg_count.Response_Data::1       440903                      
system.ruby.network.routers7.throttle1.msg_bytes.Response_Data::1     31745016                      
system.ruby.network.routers8.throttle0.link_utilization            0                      
system.ruby.network.routers8.throttle1.link_utilization            0                      
system.ruby.network.routers8.throttle2.link_utilization            0                      
system.ruby.network.routers8.throttle3.link_utilization     0.180369                      
system.ruby.network.routers8.throttle3.msg_count.Request_Control::2        16182                      
system.ruby.network.routers8.throttle3.msg_count.Response_Data::1       575401                      
system.ruby.network.routers8.throttle3.msg_count.Response_Control::1       566546                      
system.ruby.network.routers8.throttle3.msg_bytes.Request_Control::2       129456                      
system.ruby.network.routers8.throttle3.msg_bytes.Response_Data::1     41428872                      
system.ruby.network.routers8.throttle3.msg_bytes.Response_Control::1      4532368                      
system.ruby.network.routers8.throttle4.link_utilization     0.201136                      
system.ruby.network.routers8.throttle4.msg_count.Request_Control::2        63192                      
system.ruby.network.routers8.throttle4.msg_count.Response_Data::1       638210                      
system.ruby.network.routers8.throttle4.msg_count.Response_Control::1       617616                      
system.ruby.network.routers8.throttle4.msg_bytes.Request_Control::2       505536                      
system.ruby.network.routers8.throttle4.msg_bytes.Response_Data::1     45951120                      
system.ruby.network.routers8.throttle4.msg_bytes.Response_Control::1      4940928                      
system.ruby.network.routers8.throttle5.link_utilization     0.201537                      
system.ruby.network.routers8.throttle5.msg_count.Request_Control::2           43                      
system.ruby.network.routers8.throttle5.msg_count.Response_Data::1       638238                      
system.ruby.network.routers8.throttle5.msg_count.Response_Control::1       693306                      
system.ruby.network.routers8.throttle5.msg_bytes.Request_Control::2          344                      
system.ruby.network.routers8.throttle5.msg_bytes.Response_Data::1     45953136                      
system.ruby.network.routers8.throttle5.msg_bytes.Response_Control::1      5546448                      
system.ruby.network.routers8.throttle6.link_utilization     0.577547                      
system.ruby.network.routers8.throttle6.msg_count.Control::0      1891513                      
system.ruby.network.routers8.throttle6.msg_count.Response_Data::1       480633                      
system.ruby.network.routers8.throttle6.msg_count.Response_Control::2      1890512                      
system.ruby.network.routers8.throttle6.msg_count.Writeback_Data::0      1067770                      
system.ruby.network.routers8.throttle6.msg_count.Writeback_Control::0       730359                      
system.ruby.network.routers8.throttle6.msg_bytes.Control::0     15132104                      
system.ruby.network.routers8.throttle6.msg_bytes.Response_Data::1     34605576                      
system.ruby.network.routers8.throttle6.msg_bytes.Response_Control::2     15124096                      
system.ruby.network.routers8.throttle6.msg_bytes.Writeback_Data::0     76879440                      
system.ruby.network.routers8.throttle6.msg_bytes.Writeback_Control::0      5842872                      
system.ruby.network.routers8.throttle7.link_utilization     0.013803                      
system.ruby.network.routers8.throttle7.msg_count.Control::0       440903                      
system.ruby.network.routers8.throttle7.msg_bytes.Control::0      3527224                      
system.ruby.delayVCHist.vnet_0::bucket_size            4                       # delay histogram for vnet_0
system.ruby.delayVCHist.vnet_0::max_bucket           39                       # delay histogram for vnet_0
system.ruby.delayVCHist.vnet_0::samples       5580154                       # delay histogram for vnet_0
system.ruby.delayVCHist.vnet_0::mean         1.566447                       # delay histogram for vnet_0
system.ruby.delayVCHist.vnet_0::stdev        3.223956                       # delay histogram for vnet_0
[...]
system.ruby.L0Cache_Controller.M.L0_Replacement |      571142     52.05%     52.05% |      261802     23.86%     75.91% |      264300     24.09%    100.00%
system.ruby.L0Cache_Controller.M.L0_Replacement::total      1097244                      
system.ruby.L0Cache_Controller.IS.Data   |          45      0.11%      0.11% |        8261     20.26%     20.37% |       32468     79.63%    100.00%
system.ruby.L0Cache_Controller.IS.Data::total        40774                      
system.ruby.L0Cache_Controller.IS.Data_Exclusive |        3145      0.23%      0.23% |      703800     50.81%     51.04% |      678220     48.96%    100.00%
system.ruby.L0Cache_Controller.IS.Data_Exclusive::total      1385165                      
system.ruby.L0Cache_Controller.IM.Data_Exclusive |      572312     99.99%     99.99% |          19      0.00%    100.00% |          19      0.00%    100.00%
system.ruby.L0Cache_Controller.IM.Data_Exclusive::total       572350                      
system.ruby.L0Cache_Controller.SM.Data_Exclusive |          29      0.07%      0.07% |        7752     19.54%     19.61% |       31889     80.39%    100.00%
system.ruby.L0Cache_Controller.SM.Data_Exclusive::total        39670                      
system.ruby.L1Cache_Controller.Load      |        3190      0.22%      0.22% |      712061     49.94%     50.16% |      710688     49.84%    100.00%
system.ruby.L1Cache_Controller.Load::total      1425939                      
system.ruby.L1Cache_Controller.Store     |      572341     93.52%     93.52% |        7771      1.27%     94.79% |       31908      5.21%    100.00%
system.ruby.L1Cache_Controller.Store::total       612020                      
system.ruby.L1Cache_Controller.WriteBack |      571465     28.84%     28.84% |      704457     35.55%     64.39% |      705523     35.61%    100.00%
system.ruby.L1Cache_Controller.WriteBack::total      1981445                      
system.ruby.L1Cache_Controller.L0_DataAck |        1417     18.04%     18.04% |        4721     60.11%     78.15% |        1716     21.85%    100.00%
system.ruby.L1Cache_Controller.L0_DataAck::total         7854                      
system.ruby.L1Cache_Controller.Inv       |        8067     20.33%     20.33% |       31578     79.59%     99.92% |          30      0.08%    100.00%
system.ruby.L1Cache_Controller.Inv::total        39675                      
system.ruby.L1Cache_Controller.L0_Invalidate_Own |        4430     21.21%     21.21% |        8198     39.25%     60.47% |        8256     39.53%    100.00%
system.ruby.L1Cache_Controller.L0_Invalidate_Own::total        20884                      
system.ruby.L1Cache_Controller.L0_Invalidate_Else |        2016     24.90%     24.90% |        6030     74.46%     99.36% |          52      0.64%    100.00%
system.ruby.L1Cache_Controller.L0_Invalidate_Else::total         8098                      
system.ruby.L1Cache_Controller.L1_Replacement |      566480     31.44%     31.44% |      605260     33.59%     65.03% |      630039     34.97%    100.00%
system.ruby.L1Cache_Controller.L1_Replacement::total      1801779                      
system.ruby.L1Cache_Controller.Fwd_GETX  |           0      0.00%      0.00% |           8     66.67%     66.67% |           4     33.33%    100.00%
system.ruby.L1Cache_Controller.Fwd_GETX::total           12                      
system.ruby.L1Cache_Controller.Fwd_GETS  |        8115     20.43%     20.43% |       31606     79.55%     99.98% |           9      0.02%    100.00%
system.ruby.L1Cache_Controller.Fwd_GETS::total        39730                      
system.ruby.L1Cache_Controller.Data      |           0      0.00%      0.00% |           1     50.00%     50.00% |           1     50.00%    100.00%
system.ruby.L1Cache_Controller.Data::total            2                      
system.ruby.L1Cache_Controller.Data_Exclusive |        3081      0.25%      0.25% |      629949     50.85%     51.10% |      605756     48.90%    100.00%
system.ruby.L1Cache_Controller.Data_Exclusive::total      1238786                      
system.ruby.L1Cache_Controller.DataS_fromL1 |          16      0.04%      0.04% |        7752     19.51%     19.55% |       31962     80.45%    100.00%
system.ruby.L1Cache_Controller.DataS_fromL1::total        39730                      
system.ruby.L1Cache_Controller.Data_all_Acks |      572304     99.82%     99.82% |         508      0.09%     99.91% |         519      0.09%    100.00%
system.ruby.L1Cache_Controller.Data_all_Acks::total       573331                      
system.ruby.L1Cache_Controller.L0_Ack    |        1806     27.21%     27.21% |        2393     36.06%     63.27% |        2438     36.73%    100.00%
system.ruby.L1Cache_Controller.L0_Ack::total         6637                      
system.ruby.L1Cache_Controller.Ack       |          37      0.09%      0.09% |        7750     19.53%     19.63% |       31886     80.37%    100.00%
system.ruby.L1Cache_Controller.Ack::total        39673                      
system.ruby.L1Cache_Controller.Ack_all   |          29      0.07%      0.07% |        7750     19.54%     19.61% |       31887     80.39%    100.00%
system.ruby.L1Cache_Controller.Ack_all::total        39666                      
system.ruby.L1Cache_Controller.WB_Ack    |      566480     31.50%     31.50% |      602116     33.49%     64.99% |      629533     35.01%    100.00%
system.ruby.L1Cache_Controller.WB_Ack::total      1798129                      
system.ruby.L1Cache_Controller.NP.Load   |        3110      0.24%      0.24% |      638189     49.88%     50.12% |      638214     49.88%    100.00%
system.ruby.L1Cache_Controller.NP.Load::total      1279513                      
system.ruby.L1Cache_Controller.NP.Store  |      572291     99.99%     99.99% |          17      0.00%    100.00% |          18      0.00%    100.00%
system.ruby.L1Cache_Controller.NP.Store::total       572326                      
system.ruby.L1Cache_Controller.NP.Inv    |           0      0.00%      0.00% |        2959     99.73%     99.73% |           8      0.27%    100.00%
system.ruby.L1Cache_Controller.NP.Inv::total         2967                      
system.ruby.L1Cache_Controller.I.Load    |           0      0.00%      0.00% |           1     25.00%     25.00% |           3     75.00%    100.00%
system.ruby.L1Cache_Controller.I.Load::total            4                      
system.ruby.L1Cache_Controller.I.L1_Replacement |           0      0.00%      0.00% |           4    100.00%    100.00% |           0      0.00%    100.00%
system.ruby.L1Cache_Controller.I.L1_Replacement::total            4                      
system.ruby.L1Cache_Controller.S.Load    |           0      0.00%      0.00% |           3     33.33%     33.33% |           6     66.67%    100.00%
system.ruby.L1Cache_Controller.S.Load::total            9                      
system.ruby.L1Cache_Controller.S.Store   |          29      0.07%      0.07% |        7752     19.54%     19.61% |       31889     80.39%    100.00%
system.ruby.L1Cache_Controller.S.Store::total        39670                      
system.ruby.L1Cache_Controller.S.L0_Invalidate_Own |           0      0.00%      0.00% |         481     48.73%     48.73% |         506     51.27%    100.00%
system.ruby.L1Cache_Controller.S.L0_Invalidate_Own::total          987                      
system.ruby.L1Cache_Controller.S.L0_Invalidate_Else |           2     11.11%     11.11% |           3     16.67%     27.78% |          13     72.22%    100.00%
system.ruby.L1Cache_Controller.S.L0_Invalidate_Else::total           18                      
system.ruby.L1Cache_Controller.SS.Load   |          16     47.06%     47.06% |          17     50.00%     97.06% |           1      2.94%    100.00%
system.ruby.L1Cache_Controller.SS.Load::total           34                      
system.ruby.L1Cache_Controller.SS.Inv    |        8067     21.98%     21.98% |       28616     77.97%     99.95% |          19      0.05%    100.00%
system.ruby.L1Cache_Controller.SS.Inv::total        36702                      
system.ruby.L1Cache_Controller.SS.L1_Replacement |           0      0.00%      0.00% |        3140     86.12%     86.12% |         506     13.88%    100.00%
system.ruby.L1Cache_Controller.SS.L1_Replacement::total         3646                      
system.ruby.L1Cache_Controller.E.WriteBack |         361      0.03%      0.03% |      623424     50.86%     50.89% |      602006     49.11%    100.00%
system.ruby.L1Cache_Controller.E.WriteBack::total      1225791                      
system.ruby.L1Cache_Controller.E.L0_Invalidate_Own |        1996     21.75%     21.75% |        3567     38.86%     60.61% |        3616     39.39%    100.00%
system.ruby.L1Cache_Controller.E.L0_Invalidate_Own::total         9179                      
system.ruby.L1Cache_Controller.E.L0_Invalidate_Else |          11      0.44%      0.44% |        2476     99.52%     99.96% |           1      0.04%    100.00%
system.ruby.L1Cache_Controller.E.L0_Invalidate_Else::total         2488                      
system.ruby.L1Cache_Controller.EE.Load   |           0      0.00%      0.00% |           1    100.00%    100.00% |           0      0.00%    100.00%
system.ruby.L1Cache_Controller.EE.Load::total            1                      
system.ruby.L1Cache_Controller.EE.L1_Replacement |        1789     32.35%     32.35% |        1825     33.00%     65.35% |        1916     34.65%    100.00%
system.ruby.L1Cache_Controller.EE.L1_Replacement::total         5530                      
system.ruby.L1Cache_Controller.EE.Fwd_GETX |           0      0.00%      0.00% |           1    100.00%    100.00% |           0      0.00%    100.00%
system.ruby.L1Cache_Controller.EE.Fwd_GETX::total            1                      
system.ruby.L1Cache_Controller.EE.Fwd_GETS |          10     22.73%     22.73% |          34     77.27%    100.00% |           0      0.00%    100.00%
system.ruby.L1Cache_Controller.EE.Fwd_GETS::total           44                      
system.ruby.L1Cache_Controller.M.WriteBack |      571104     75.58%     75.58% |       81033     10.72%     86.30% |      103517     13.70%    100.00%
system.ruby.L1Cache_Controller.M.WriteBack::total       755654                      
system.ruby.L1Cache_Controller.M.L0_Invalidate_Own |         219     79.35%     79.35% |          51     18.48%     97.83% |           6      2.17%    100.00%
system.ruby.L1Cache_Controller.M.L0_Invalidate_Own::total          276                      
system.ruby.L1Cache_Controller.M.L0_Invalidate_Else |         995     64.48%     64.48% |         536     34.74%     99.22% |          12      0.78%    100.00%
system.ruby.L1Cache_Controller.M.L0_Invalidate_Else::total         1543                      
system.ruby.L1Cache_Controller.MM.Load   |          64      0.04%      0.04% |       73850     50.45%     50.50% |       72464     49.50%    100.00%
system.ruby.L1Cache_Controller.MM.Load::total       146378                      
system.ruby.L1Cache_Controller.MM.Store  |          21     87.50%     87.50% |           2      8.33%     95.83% |           1      4.17%    100.00%
system.ruby.L1Cache_Controller.MM.Store::total           24                      
system.ruby.L1Cache_Controller.MM.L1_Replacement |      564691     31.50%     31.50% |      600291     33.49%     64.99% |      627617     35.01%    100.00%
system.ruby.L1Cache_Controller.MM.L1_Replacement::total      1792599                      
system.ruby.L1Cache_Controller.MM.Fwd_GETX |           0      0.00%      0.00% |           7     63.64%     63.64% |           4     36.36%    100.00%
system.ruby.L1Cache_Controller.MM.Fwd_GETX::total           11                      
system.ruby.L1Cache_Controller.MM.Fwd_GETS |        8105     20.59%     20.59% |       31258     79.39%     99.98% |           9      0.02%    100.00%
system.ruby.L1Cache_Controller.MM.Fwd_GETS::total        39372                      
system.ruby.L1Cache_Controller.IS.Data_Exclusive |        3081      0.25%      0.25% |      629949     50.85%     51.10% |      605756     48.90%    100.00%
system.ruby.L1Cache_Controller.IS.Data_Exclusive::total      1238786                      
system.ruby.L1Cache_Controller.IS.DataS_fromL1 |          16      0.04%      0.04% |        7752     19.51%     19.55% |       31962     80.45%    100.00%
system.ruby.L1Cache_Controller.IS.DataS_fromL1::total        39730                      
system.ruby.L1Cache_Controller.IS.Data_all_Acks |          13      1.30%      1.30% |         489     48.85%     50.15% |         499     49.85%    100.00%
system.ruby.L1Cache_Controller.IS.Data_all_Acks::total         1001                      
system.ruby.L1Cache_Controller.IM.Data   |           0      0.00%      0.00% |           1     50.00%     50.00% |           1     50.00%    100.00%
system.ruby.L1Cache_Controller.IM.Data::total            2                      
system.ruby.L1Cache_Controller.IM.Data_all_Acks |      572291     99.99%     99.99% |          19      0.00%    100.00% |          20      0.00%    100.00%
system.ruby.L1Cache_Controller.IM.Data_all_Acks::total       572330                      
system.ruby.L1Cache_Controller.SM.Inv    |           0      0.00%      0.00% |           3     50.00%     50.00% |           3     50.00%    100.00%
system.ruby.L1Cache_Controller.SM.Inv::total            6                      
system.ruby.L1Cache_Controller.SM.Ack    |          37      0.09%      0.09% |        7750     19.53%     19.63% |       31886     80.37%    100.00%
system.ruby.L1Cache_Controller.SM.Ack::total        39673                      
system.ruby.L1Cache_Controller.SM.Ack_all |          29      0.07%      0.07% |        7750     19.54%     19.61% |       31887     80.39%    100.00%
system.ruby.L1Cache_Controller.SM.Ack_all::total        39666                      
system.ruby.L1Cache_Controller.M_I.Fwd_GETS |           0      0.00%      0.00% |         314    100.00%    100.00% |           0      0.00%    100.00%
system.ruby.L1Cache_Controller.M_I.Fwd_GETS::total          314                      
system.ruby.L1Cache_Controller.M_I.WB_Ack |      566480     31.51%     31.51% |      601802     33.47%     64.98% |      629533     35.02%    100.00%
system.ruby.L1Cache_Controller.M_I.WB_Ack::total      1797815                      
system.ruby.L1Cache_Controller.SINK_WB_ACK.WB_Ack |           0      0.00%      0.00% |         314    100.00%    100.00% |           0      0.00%    100.00%
system.ruby.L1Cache_Controller.SINK_WB_ACK.WB_Ack::total          314                      
system.ruby.L1Cache_Controller.S_IL0.L0_Invalidate_Own |           0      0.00%      0.00% |         481     48.73%     48.73% |         506     51.27%    100.00%
system.ruby.L1Cache_Controller.S_IL0.L0_Invalidate_Own::total          987                      
system.ruby.L1Cache_Controller.S_IL0.L0_Invalidate_Else |           2     11.11%     11.11% |           3     16.67%     27.78% |          13     72.22%    100.00%
system.ruby.L1Cache_Controller.S_IL0.L0_Invalidate_Else::total           18                      
system.ruby.L1Cache_Controller.S_IL0.L0_Ack |           2      0.20%      0.20% |         484     48.16%     48.36% |         519     51.64%    100.00%
system.ruby.L1Cache_Controller.S_IL0.L0_Ack::total         1005                      
system.ruby.L1Cache_Controller.E_IL0.L0_DataAck |         208      3.41%      3.41% |        4182     68.66%     72.07% |        1701     27.93%    100.00%
system.ruby.L1Cache_Controller.E_IL0.L0_DataAck::total         6091                      
system.ruby.L1Cache_Controller.E_IL0.L0_Invalidate_Own |        1996     21.75%     21.75% |        3567     38.86%     60.61% |        3616     39.39%    100.00%
system.ruby.L1Cache_Controller.E_IL0.L0_Invalidate_Own::total         9179                      
system.ruby.L1Cache_Controller.E_IL0.L0_Invalidate_Else |          11      0.44%      0.44% |        2476     99.52%     99.96% |           1      0.04%    100.00%
system.ruby.L1Cache_Controller.E_IL0.L0_Invalidate_Else::total         2488                      
system.ruby.L1Cache_Controller.E_IL0.L0_Ack |        1799     32.26%     32.26% |        1861     33.38%     65.64% |        1916     34.36%    100.00%
system.ruby.L1Cache_Controller.E_IL0.L0_Ack::total         5576                      
system.ruby.L1Cache_Controller.M_IL0.L0_DataAck |        1209     68.58%     68.58% |         539     30.57%     99.15% |          15      0.85%    100.00%
system.ruby.L1Cache_Controller.M_IL0.L0_DataAck::total         1763                      
system.ruby.L1Cache_Controller.M_IL0.L0_Invalidate_Own |         219     79.35%     79.35% |          51     18.48%     97.83% |           6      2.17%    100.00%
system.ruby.L1Cache_Controller.M_IL0.L0_Invalidate_Own::total          276                      
system.ruby.L1Cache_Controller.M_IL0.L0_Invalidate_Else |         995     64.48%     64.48% |         536     34.74%     99.22% |          12      0.78%    100.00%
system.ruby.L1Cache_Controller.M_IL0.L0_Invalidate_Else::total         1543                      
system.ruby.L1Cache_Controller.M_IL0.L0_Ack |           5      8.93%      8.93% |          48     85.71%     94.64% |           3      5.36%    100.00%
system.ruby.L1Cache_Controller.M_IL0.L0_Ack::total           56                      
system.ruby.L2Cache_Controller.L1_GETS        1279520      0.00%      0.00%
system.ruby.L2Cache_Controller.L1_GETX         572332      0.00%      0.00%
system.ruby.L2Cache_Controller.L1_UPGRADE        39670      0.00%      0.00%
system.ruby.L2Cache_Controller.L1_PUTX        1798443      0.00%      0.00%
system.ruby.L2Cache_Controller.Mem_Data        440903      0.00%      0.00%
system.ruby.L2Cache_Controller.WB_Data          39730      0.00%      0.00%
system.ruby.L2Cache_Controller.Unblock          39730      0.00%      0.00%
system.ruby.L2Cache_Controller.Exclusive_Unblock      1850782      0.00%      0.00%
system.ruby.L2Cache_Controller.NP.L1_GETS         1438      0.00%      0.00%
system.ruby.L2Cache_Controller.NP.L1_GETX       439465      0.00%      0.00%
system.ruby.L2Cache_Controller.SS.L1_GETS          983      0.00%      0.00%
system.ruby.L2Cache_Controller.SS.L1_GETX            2      0.00%      0.00%
system.ruby.L2Cache_Controller.SS.L1_UPGRADE        39664      0.00%      0.00%
system.ruby.L2Cache_Controller.SS.L1_PUTX          314      0.00%      0.00%
system.ruby.L2Cache_Controller.M.L1_GETS      1237357      0.00%      0.00%
system.ruby.L2Cache_Controller.M.L1_GETX       132853      0.00%      0.00%
system.ruby.L2Cache_Controller.MT.L1_GETS        39730      0.00%      0.00%
system.ruby.L2Cache_Controller.MT.L1_GETX           12      0.00%      0.00%
system.ruby.L2Cache_Controller.MT.L1_PUTX      1797815      0.00%      0.00%
system.ruby.L2Cache_Controller.ISS.L1_GETS            9      0.00%      0.00%
system.ruby.L2Cache_Controller.ISS.Mem_Data         1429      0.00%      0.00%
system.ruby.L2Cache_Controller.IS.Mem_Data            9      0.00%      0.00%
system.ruby.L2Cache_Controller.IM.Mem_Data       439465      0.00%      0.00%
system.ruby.L2Cache_Controller.SS_MB.L1_GETS            1      0.00%      0.00%
system.ruby.L2Cache_Controller.SS_MB.L1_UPGRADE            6      0.00%      0.00%
system.ruby.L2Cache_Controller.SS_MB.Exclusive_Unblock        39666      0.00%      0.00%
system.ruby.L2Cache_Controller.MT_MB.L1_GETS            2      0.00%      0.00%
system.ruby.L2Cache_Controller.MT_MB.Exclusive_Unblock      1811116      0.00%      0.00%
system.ruby.L2Cache_Controller.MT_IIB.L1_PUTX          314      0.00%      0.00%
system.ruby.L2Cache_Controller.MT_IIB.WB_Data        39728      0.00%      0.00%
system.ruby.L2Cache_Controller.MT_IIB.Unblock            2      0.00%      0.00%
system.ruby.L2Cache_Controller.MT_IB.WB_Data            2      0.00%      0.00%
system.ruby.L2Cache_Controller.MT_SB.Unblock        39728      0.00%      0.00%

---------- End Simulation Statistics   ----------
