
---------- Begin Simulation Statistics ----------
sim_seconds                                  1.531993                       # Number of seconds simulated
sim_ticks                                1531992618000                       # Number of ticks simulated
final_tick                               1531992618000                       # Number of ticks from beginning of simulation (restored from checkpoints and never reset)
sim_freq                                 1000000000000                       # Frequency of simulated ticks
host_inst_rate                                 157998                       # Simulator instruction rate (inst/s)
host_op_rate                                   443015                       # Simulator op (including micro ops) rate (op/s)
host_tick_rate                              267864927                       # Simulator tick rate (ticks/s)
host_mem_usage                                1027636                       # Number of bytes of host memory used
host_seconds                                  5719.27                       # Real time elapsed on the host
sim_insts                                   903636000                       # Number of instructions simulated
sim_ops                                    2533723822                       # Number of ops (including micro ops) simulated
system.voltage_domain.voltage                       1                       # Voltage in Volts
system.clk_domain.clock                          1000                       # Clock period in ticks
system.mem_ctrls.bytes_read::ruby.dir_cntrl0     56871744                       # Number of bytes read from this memory
system.mem_ctrls.bytes_read::total           56871744                       # Number of bytes read from this memory
system.mem_ctrls.bytes_written::ruby.dir_cntrl0     32630720                       # Number of bytes written to this memory
system.mem_ctrls.bytes_written::total        32630720                       # Number of bytes written to this memory
system.mem_ctrls.num_reads::ruby.dir_cntrl0       888621                       # Number of read requests responded to by this memory
system.mem_ctrls.num_reads::total              888621                       # Number of read requests responded to by this memory
system.mem_ctrls.num_writes::ruby.dir_cntrl0       509855                       # Number of write requests responded to by this memory
system.mem_ctrls.num_writes::total             509855                       # Number of write requests responded to by this memory
system.mem_ctrls.bw_read::ruby.dir_cntrl0     37122727                       # Total read bandwidth from this memory (bytes/s)
system.mem_ctrls.bw_read::total              37122727                       # Total read bandwidth from this memory (bytes/s)
system.mem_ctrls.bw_write::ruby.dir_cntrl0     21299528                       # Write bandwidth from this memory (bytes/s)
system.mem_ctrls.bw_write::total             21299528                       # Write bandwidth from this memory (bytes/s)
system.mem_ctrls.bw_total::ruby.dir_cntrl0     58422255                       # Total bandwidth to/from this memory (bytes/s)
system.mem_ctrls.bw_total::total             58422255                       # Total bandwidth to/from this memory (bytes/s)
system.mem_ctrls.readReqs                      888621                       # Number of read requests accepted
system.mem_ctrls.writeReqs                     509855                       # Number of write requests accepted
system.mem_ctrls.readBursts                    888621                       # Number of DRAM read bursts, including those serviced by the write queue
system.mem_ctrls.writeBursts                   509855                       # Number of DRAM write bursts, including those merged in the write queue
system.mem_ctrls.bytesReadDRAM               56870336                       # Total number of bytes read from DRAM
system.mem_ctrls.bytesReadWrQ                    1408                       # Total number of bytes read from write queue
system.mem_ctrls.bytesWritten                32629248                       # Total number of bytes written to DRAM
system.mem_ctrls.bytesReadSys                56871744                       # Total read bytes from the system interface side
system.mem_ctrls.bytesWrittenSys             32630720                       # Total written bytes from the system interface side
system.mem_ctrls.servicedByWrQ                     22                       # Number of DRAM read bursts serviced by the write queue
system.mem_ctrls.mergedWrBursts                     0                       # Number of DRAM write bursts merged with an existing one
system.mem_ctrls.neitherReadNorWriteReqs            0                       # Number of requests that are neither read nor write
system.mem_ctrls.perBankRdBursts::0             57145                       # Per bank write bursts
system.mem_ctrls.perBankRdBursts::1             57109                       # Per bank write bursts
system.mem_ctrls.perBankRdBursts::2             57456                       # Per bank write bursts
system.mem_ctrls.perBankRdBursts::3             57243                       # Per bank write bursts
system.mem_ctrls.perBankRdBursts::4             57141                       # Per bank write bursts
system.mem_ctrls.perBankRdBursts::5             53404                       # Per bank write bursts
system.mem_ctrls.perBankRdBursts::6             54166                       # Per bank write bursts
system.mem_ctrls.perBankRdBursts::7             53473                       # Per bank write bursts
system.mem_ctrls.perBankRdBursts::8             55244                       # Per bank write bursts
system.mem_ctrls.perBankRdBursts::9             54053                       # Per bank write bursts
system.mem_ctrls.perBankRdBursts::10            53585                       # Per bank write bursts
system.mem_ctrls.perBankRdBursts::11            54079                       # Per bank write bursts
system.mem_ctrls.perBankRdBursts::12            53618                       # Per bank write bursts
system.mem_ctrls.perBankRdBursts::13            56088                       # Per bank write bursts
system.mem_ctrls.perBankRdBursts::14            57650                       # Per bank write bursts
system.mem_ctrls.perBankRdBursts::15            57145                       # Per bank write bursts
system.mem_ctrls.perBankWrBursts::0             32023                       # Per bank write bursts
system.mem_ctrls.perBankWrBursts::1             31859                       # Per bank write bursts
system.mem_ctrls.perBankWrBursts::2             32208                       # Per bank write bursts
system.mem_ctrls.perBankWrBursts::3             31931                       # Per bank write bursts
system.mem_ctrls.perBankWrBursts::4             31781                       # Per bank write bursts
system.mem_ctrls.perBankWrBursts::5             31539                       # Per bank write bursts
system.mem_ctrls.perBankWrBursts::6             32087                       # Per bank write bursts
system.mem_ctrls.perBankWrBursts::7             31775                       # Per bank write bursts
system.mem_ctrls.perBankWrBursts::8             31297                       # Per bank write bursts
system.mem_ctrls.perBankWrBursts::9             31977                       # Per bank write bursts
system.mem_ctrls.perBankWrBursts::10            31525                       # Per bank write bursts
system.mem_ctrls.perBankWrBursts::11            31815                       # Per bank write bursts
system.mem_ctrls.perBankWrBursts::12            31530                       # Per bank write bursts
system.mem_ctrls.perBankWrBursts::13            32235                       # Per bank write bursts
system.mem_ctrls.perBankWrBursts::14            32191                       # Per bank write bursts
system.mem_ctrls.perBankWrBursts::15            32059                       # Per bank write bursts
system.mem_ctrls.numRdRetry                         0                       # Number of times read queue was full causing retry
system.mem_ctrls.numWrRetry                         0                       # Number of times write queue was full causing retry
system.mem_ctrls.totGap                  1531992531500                       # Total gap between requests
system.mem_ctrls.readPktSize::0                     0                       # Read request sizes (log2)
system.mem_ctrls.readPktSize::1                     0                       # Read request sizes (log2)
system.mem_ctrls.readPktSize::2                     0                       # Read request sizes (log2)
system.mem_ctrls.readPktSize::3                     0                       # Read request sizes (log2)
system.mem_ctrls.readPktSize::4                     0                       # Read request sizes (log2)
system.mem_ctrls.readPktSize::5                     0                       # Read request sizes (log2)
system.mem_ctrls.readPktSize::6                888621                       # Read request sizes (log2)
system.mem_ctrls.writePktSize::0                    0                       # Write request sizes (log2)
system.mem_ctrls.writePktSize::1                    0                       # Write request sizes (log2)
system.mem_ctrls.writePktSize::2                    0                       # Write request sizes (log2)
system.mem_ctrls.writePktSize::3                    0                       # Write request sizes (log2)
system.mem_ctrls.writePktSize::4                    0                       # Write request sizes (log2)
system.mem_ctrls.writePktSize::5                    0                       # Write request sizes (log2)
system.mem_ctrls.writePktSize::6               509855                       # Write request sizes (log2)
system.mem_ctrls.rdQLenPdf::0                  869782                       # What read queue length does an incoming req see
system.mem_ctrls.rdQLenPdf::1                   14960                       # What read queue length does an incoming req see
system.mem_ctrls.rdQLenPdf::2                    3371                       # What read queue length does an incoming req see
system.mem_ctrls.rdQLenPdf::3                     486                       # What read queue length does an incoming req see
system.mem_ctrls.rdQLenPdf::4                       0                       # What read queue length does an incoming req see
system.mem_ctrls.rdQLenPdf::5                       0                       # What read queue length does an incoming req see
system.mem_ctrls.rdQLenPdf::6                       0                       # What read queue length does an incoming req see
system.mem_ctrls.rdQLenPdf::7                       0                       # What read queue length does an incoming req see
system.mem_ctrls.rdQLenPdf::8                       0                       # What read queue length does an incoming req see
system.mem_ctrls.rdQLenPdf::9                       0                       # What read queue length does an incoming req see
system.mem_ctrls.rdQLenPdf::10                      0                       # What read queue length does an incoming req see
system.mem_ctrls.rdQLenPdf::11                      0                       # What read queue length does an incoming req see
system.mem_ctrls.rdQLenPdf::12                      0                       # What read queue length does an incoming req see
system.mem_ctrls.rdQLenPdf::13                      0                       # What read queue length does an incoming req see
system.mem_ctrls.rdQLenPdf::14                      0                       # What read queue length does an incoming req see
system.mem_ctrls.rdQLenPdf::15                      0                       # What read queue length does an incoming req see
system.mem_ctrls.rdQLenPdf::16                      0                       # What read queue length does an incoming req see
system.mem_ctrls.rdQLenPdf::17                      0                       # What read queue length does an incoming req see
system.mem_ctrls.rdQLenPdf::18                      0                       # What read queue length does an incoming req see
system.mem_ctrls.rdQLenPdf::19                      0                       # What read queue length does an incoming req see
system.mem_ctrls.rdQLenPdf::20                      0                       # What read queue length does an incoming req see
system.mem_ctrls.rdQLenPdf::21                      0                       # What read queue length does an incoming req see
system.mem_ctrls.rdQLenPdf::22                      0                       # What read queue length does an incoming req see
system.mem_ctrls.rdQLenPdf::23                      0                       # What read queue length does an incoming req see
system.mem_ctrls.rdQLenPdf::24                      0                       # What read queue length does an incoming req see
system.mem_ctrls.rdQLenPdf::25                      0                       # What read queue length does an incoming req see
system.mem_ctrls.rdQLenPdf::26                      0                       # What read queue length does an incoming req see
system.mem_ctrls.rdQLenPdf::27                      0                       # What read queue length does an incoming req see
system.mem_ctrls.rdQLenPdf::28                      0                       # What read queue length does an incoming req see
system.mem_ctrls.rdQLenPdf::29                      0                       # What read queue length does an incoming req see
system.mem_ctrls.rdQLenPdf::30                      0                       # What read queue length does an incoming req see
system.mem_ctrls.rdQLenPdf::31                      0                       # What read queue length does an incoming req see
system.mem_ctrls.wrQLenPdf::0                       1                       # What write queue length does an incoming req see
system.mem_ctrls.wrQLenPdf::1                       1                       # What write queue length does an incoming req see
system.mem_ctrls.wrQLenPdf::2                       1                       # What write queue length does an incoming req see
system.mem_ctrls.wrQLenPdf::3                       1                       # What write queue length does an incoming req see
system.mem_ctrls.wrQLenPdf::4                       1                       # What write queue length does an incoming req see
system.mem_ctrls.wrQLenPdf::5                       1                       # What write queue length does an incoming req see
system.mem_ctrls.wrQLenPdf::6                       1                       # What write queue length does an incoming req see
system.mem_ctrls.wrQLenPdf::7                       1                       # What write queue length does an incoming req see
system.mem_ctrls.wrQLenPdf::8                       1                       # What write queue length does an incoming req see
system.mem_ctrls.wrQLenPdf::9                       1                       # What write queue length does an incoming req see
system.mem_ctrls.wrQLenPdf::10                      1                       # What write queue length does an incoming req see
system.mem_ctrls.wrQLenPdf::11                      1                       # What write queue length does an incoming req see
system.mem_ctrls.wrQLenPdf::12                      1                       # What write queue length does an incoming req see
system.mem_ctrls.wrQLenPdf::13                      1                       # What write queue length does an incoming req see
system.mem_ctrls.wrQLenPdf::14                      1                       # What write queue length does an incoming req see
system.mem_ctrls.wrQLenPdf::15                   1085                       # What write queue length does an incoming req see
system.mem_ctrls.wrQLenPdf::16                   1120                       # What write queue length does an incoming req see
system.mem_ctrls.wrQLenPdf::17                  29806                       # What write queue length does an incoming req see
system.mem_ctrls.wrQLenPdf::18                  31211                       # What write queue length does an incoming req see
system.mem_ctrls.wrQLenPdf::19                  31533                       # What write queue length does an incoming req see
system.mem_ctrls.wrQLenPdf::20                  31820                       # What write queue length does an incoming req see
system.mem_ctrls.wrQLenPdf::21                  31843                       # What write queue length does an incoming req see
system.mem_ctrls.wrQLenPdf::22                  31873                       # What write queue length does an incoming req see
system.mem_ctrls.wrQLenPdf::23                  32056                       # What write queue length does an incoming req see
system.mem_ctrls.wrQLenPdf::24                  31871                       # What write queue length does an incoming req see
system.mem_ctrls.wrQLenPdf::25                  31880                       # What write queue length does an incoming req see
system.mem_ctrls.wrQLenPdf::26                  31852                       # What write queue length does an incoming req see
system.mem_ctrls.wrQLenPdf::27                  31919                       # What write queue length does an incoming req see
system.mem_ctrls.wrQLenPdf::28                  31997                       # What write queue length does an incoming req see
system.mem_ctrls.wrQLenPdf::29                  31901                       # What write queue length does an incoming req see
system.mem_ctrls.wrQLenPdf::30                  31853                       # What write queue length does an incoming req see
system.mem_ctrls.wrQLenPdf::31                  32235                       # What write queue length does an incoming req see
system.mem_ctrls.wrQLenPdf::32                  31942                       # What write queue length does an incoming req see
system.mem_ctrls.wrQLenPdf::33                     32                       # What write queue length does an incoming req see
system.mem_ctrls.wrQLenPdf::34                      8                       # What write queue length does an incoming req see
system.mem_ctrls.wrQLenPdf::35                      3                       # What write queue length does an incoming req see
system.mem_ctrls.wrQLenPdf::36                      0                       # What write queue length does an incoming req see
system.mem_ctrls.wrQLenPdf::37                      0                       # What write queue length does an incoming req see
system.mem_ctrls.wrQLenPdf::38                      0                       # What write queue length does an incoming req see
system.mem_ctrls.wrQLenPdf::39                      0                       # What write queue length does an incoming req see
system.mem_ctrls.wrQLenPdf::40                      0                       # What write queue length does an incoming req see
system.mem_ctrls.wrQLenPdf::41                      0                       # What write queue length does an incoming req see
system.mem_ctrls.wrQLenPdf::42                      0                       # What write queue length does an incoming req see
system.mem_ctrls.wrQLenPdf::43                      0                       # What write queue length does an incoming req see
system.mem_ctrls.wrQLenPdf::44                      0                       # What write queue length does an incoming req see
system.mem_ctrls.wrQLenPdf::45                      0                       # What write queue length does an incoming req see
system.mem_ctrls.wrQLenPdf::46                      0                       # What write queue length does an incoming req see
system.mem_ctrls.wrQLenPdf::47                      0                       # What write queue length does an incoming req see
system.mem_ctrls.wrQLenPdf::48                      0                       # What write queue length does an incoming req see
system.mem_ctrls.wrQLenPdf::49                      0                       # What write queue length does an incoming req see
system.mem_ctrls.wrQLenPdf::50                      0                       # What write queue length does an incoming req see
system.mem_ctrls.wrQLenPdf::51                      0                       # What write queue length does an incoming req see
system.mem_ctrls.wrQLenPdf::52                      0                       # What write queue length does an incoming req see
system.mem_ctrls.wrQLenPdf::53                      0                       # What write queue length does an incoming req see
system.mem_ctrls.wrQLenPdf::54                      0                       # What write queue length does an incoming req see
system.mem_ctrls.wrQLenPdf::55                      0                       # What write queue length does an incoming req see
system.mem_ctrls.wrQLenPdf::56                      0                       # What write queue length does an incoming req see
system.mem_ctrls.wrQLenPdf::57                      0                       # What write queue length does an incoming req see
system.mem_ctrls.wrQLenPdf::58                      0                       # What write queue length does an incoming req see
system.mem_ctrls.wrQLenPdf::59                      0                       # What write queue length does an incoming req see
system.mem_ctrls.wrQLenPdf::60                      0                       # What write queue length does an incoming req see
system.mem_ctrls.wrQLenPdf::61                      0                       # What write queue length does an incoming req see
system.mem_ctrls.wrQLenPdf::62                      0                       # What write queue length does an incoming req see
system.mem_ctrls.wrQLenPdf::63                      0                       # What write queue length does an incoming req see
system.mem_ctrls.bytesPerActivate::samples       201947                       # Bytes accessed per row activation
system.mem_ctrls.bytesPerActivate::mean    443.179725                       # Bytes accessed per row activation
system.mem_ctrls.bytesPerActivate::gmean   330.625466                       # Bytes accessed per row activation
system.mem_ctrls.bytesPerActivate::stdev   313.552878                       # Bytes accessed per row activation
system.mem_ctrls.bytesPerActivate::0-127        22373     11.08%     11.08% # Bytes accessed per row activation
system.mem_ctrls.bytesPerActivate::128-255        21861     10.83%     21.90% # Bytes accessed per row activation
system.mem_ctrls.bytesPerActivate::256-383        68160     33.75%     55.66% # Bytes accessed per row activation
system.mem_ctrls.bytesPerActivate::384-511        18029      8.93%     64.58% # Bytes accessed per row activation
system.mem_ctrls.bytesPerActivate::512-639        16299      8.07%     72.65% # Bytes accessed per row activation
system.mem_ctrls.bytesPerActivate::640-767        12458      6.17%     78.82% # Bytes accessed per row activation
system.mem_ctrls.bytesPerActivate::768-895         8697      4.31%     83.13% # Bytes accessed per row activation
system.mem_ctrls.bytesPerActivate::896-1023         6190      3.07%     86.19% # Bytes accessed per row activation
system.mem_ctrls.bytesPerActivate::1024-1151        27880     13.81%    100.00% # Bytes accessed per row activation
system.mem_ctrls.bytesPerActivate::total       201947                       # Bytes accessed per row activation
system.mem_ctrls.rdPerTurnAround::samples        31724                       # Reads before turning the bus around for writes
system.mem_ctrls.rdPerTurnAround::mean      28.010055                       # Reads before turning the bus around for writes
system.mem_ctrls.rdPerTurnAround::gmean     16.441176                       # Reads before turning the bus around for writes
system.mem_ctrls.rdPerTurnAround::stdev   1728.769151                       # Reads before turning the bus around for writes
system.mem_ctrls.rdPerTurnAround::0-16383        31723    100.00%    100.00% # Reads before turning the bus around for writes
system.mem_ctrls.rdPerTurnAround::294912-311295            1      0.00%    100.00% # Reads before turning the bus around for writes
system.mem_ctrls.rdPerTurnAround::total         31724                       # Reads before turning the bus around for writes
system.mem_ctrls.wrPerTurnAround::samples        31724                       # Writes before turning the bus around for reads
system.mem_ctrls.wrPerTurnAround::mean      16.070861                       # Writes before turning the bus around for reads
system.mem_ctrls.wrPerTurnAround::gmean     16.066800                       # Writes before turning the bus around for reads
system.mem_ctrls.wrPerTurnAround::stdev      0.375574                       # Writes before turning the bus around for reads
system.mem_ctrls.wrPerTurnAround::16            30618     96.51%     96.51% # Writes before turning the bus around for reads
system.mem_ctrls.wrPerTurnAround::17                2      0.01%     96.52% # Writes before turning the bus around for reads
system.mem_ctrls.wrPerTurnAround::18             1078      3.40%     99.92% # Writes before turning the bus around for reads
system.mem_ctrls.wrPerTurnAround::19               15      0.05%     99.97% # Writes before turning the bus around for reads
system.mem_ctrls.wrPerTurnAround::20               10      0.03%    100.00% # Writes before turning the bus around for reads
system.mem_ctrls.wrPerTurnAround::21                1      0.00%    100.00% # Writes before turning the bus around for reads
system.mem_ctrls.wrPerTurnAround::total         31724                       # Writes before turning the bus around for reads
system.mem_ctrls.totQLat                  11947024939                       # Total ticks spent queuing
system.mem_ctrls.totMemAccLat             28608256189                       # Total ticks spent from burst creation until serviced by the DRAM
system.mem_ctrls.totBusLat                 4442995000                       # Total ticks spent in databus transfers
system.mem_ctrls.avgQLat                     13444.79                       # Average queueing delay per DRAM burst
system.mem_ctrls.avgBusLat                    5000.00                       # Average bus latency per DRAM burst
system.mem_ctrls.avgMemAccLat                32194.79                       # Average memory access latency per DRAM burst
system.mem_ctrls.avgRdBW                        37.12                       # Average DRAM read bandwidth in MiByte/s
system.mem_ctrls.avgWrBW                        21.30                       # Average achieved write bandwidth in MiByte/s
system.mem_ctrls.avgRdBWSys                     37.12                       # Average system read bandwidth in MiByte/s
system.mem_ctrls.avgWrBWSys                     21.30                       # Average system write bandwidth in MiByte/s
system.mem_ctrls.peakBW                      12800.00                       # Theoretical peak bandwidth in MiByte/s
system.mem_ctrls.busUtil                         0.46                       # Data bus utilization in percentage
system.mem_ctrls.busUtilRead                     0.29                       # Data bus utilization in percentage for reads
system.mem_ctrls.busUtilWrite                    0.17                       # Data bus utilization in percentage for writes
system.mem_ctrls.avgRdQLen                       1.00                       # Average read queue length when enqueuing
system.mem_ctrls.avgWrQLen                      18.43                       # Average write queue length when enqueuing
system.mem_ctrls.readRowHits                   730630                       # Number of row buffer hits during reads
system.mem_ctrls.writeRowHits                  465847                       # Number of row buffer hits during writes
system.mem_ctrls.readRowHitRate                 82.22                       # Row buffer hit rate for reads
system.mem_ctrls.writeRowHitRate                91.37                       # Row buffer hit rate for writes
system.mem_ctrls.avgGap                    1095472.88                       # Average gap between requests
system.mem_ctrls.pageHitRate                    85.56                       # Row buffer hit rate, read and write combined
system.mem_ctrls_0.actEnergy                773456040                       # Energy for activate commands per rank (pJ)
system.mem_ctrls_0.preEnergy                422024625                       # Energy for precharge commands per rank (pJ)
system.mem_ctrls_0.readEnergy              3487660800                       # Energy for read commands per rank (pJ)
system.mem_ctrls_0.writeEnergy             1653631200                       # Energy for write commands per rank (pJ)
system.mem_ctrls_0.refreshEnergy         100062231360                       # Energy for refresh commands per rank (pJ)
system.mem_ctrls_0.actBackEnergy         302434653555                       # Energy for active background per rank (pJ)
system.mem_ctrls_0.preBackEnergy         653901443250                       # Energy for precharge background per rank (pJ)
system.mem_ctrls_0.totalEnergy           1062735100830                       # Total energy per rank (pJ)
system.mem_ctrls_0.averagePower            693.695093                       # Core power per rank (mW)
system.mem_ctrls_0.memoryStateTime::IDLE 1085970563001                       # Time in different power states
system.mem_ctrls_0.memoryStateTime::REF   51156560000                       # Time in different power states
system.mem_ctrls_0.memoryStateTime::PRE_PDN            0                       # Time in different power states
system.mem_ctrls_0.memoryStateTime::ACT  394864555749                       # Time in different power states
system.mem_ctrls_0.memoryStateTime::ACT_PDN            0                       # Time in different power states
system.mem_ctrls_1.actEnergy                753210360                       # Energy for activate commands per rank (pJ)
system.mem_ctrls_1.preEnergy                410977875                       # Energy for precharge commands per rank (pJ)
system.mem_ctrls_1.readEnergy              3443341200                       # Energy for read commands per rank (pJ)
system.mem_ctrls_1.writeEnergy             1649963520                       # Energy for write commands per rank (pJ)
system.mem_ctrls_1.refreshEnergy         100062231360                       # Energy for refresh commands per rank (pJ)
system.mem_ctrls_1.actBackEnergy         301608394380                       # Energy for active background per rank (pJ)
system.mem_ctrls_1.preBackEnergy         654626232000                       # Energy for precharge background per rank (pJ)
system.mem_ctrls_1.totalEnergy           1062554350695                       # Total energy per rank (pJ)
system.mem_ctrls_1.averagePower            693.577109                       # Core power per rank (mW)
system.mem_ctrls_1.memoryStateTime::IDLE 1087188347252                       # Time in different power states
system.mem_ctrls_1.memoryStateTime::REF   51156560000                       # Time in different power states
system.mem_ctrls_1.memoryStateTime::PRE_PDN            0                       # Time in different power states
system.mem_ctrls_1.memoryStateTime::ACT  393646771498                       # Time in different power states
system.mem_ctrls_1.memoryStateTime::ACT_PDN            0                       # Time in different power states
system.cpu_voltage_domain.voltage                   1                       # Voltage in Volts
system.cpu_clk_domain.clock                       500                       # Clock period in ticks
system.cpu0.apic_clk_domain.clock                8000                       # Clock period in ticks
system.cpu0.workload.num_syscalls                 156                       # Number of system calls
system.cpu0.numCycles                      3063985236                       # number of cpu cycles simulated
system.cpu0.numWorkItemsStarted                     0                       # number of work items this cpu started
system.cpu0.numWorkItemsCompleted                   0                       # number of work items this cpu completed
system.cpu0.committedInsts                  845565336                       # Number of instructions committed
system.cpu0.committedOps                   2417588794                       # Number of ops (including micro ops) committed
system.cpu0.num_int_alu_accesses           2280649299                       # Number of integer alu accesses
system.cpu0.num_fp_alu_accesses              58138100                       # Number of float alu accesses
system.cpu0.num_func_calls                   81530208                       # number of times a function call or return occured
system.cpu0.num_conditional_control_insts    186457934                       # number of instructions that are conditional controls
system.cpu0.num_int_insts                  2280649299                       # number of integer instructions
system.cpu0.num_fp_insts                     58138100                       # number of float instructions
system.cpu0.num_int_register_reads         4804261907                       # number of times the integer registers were read
system.cpu0.num_int_register_writes        2273122741                       # number of times the integer registers were written
system.cpu0.num_fp_register_reads            93430223                       # number of times the floating registers were read
system.cpu0.num_fp_register_writes           45692960                       # number of times the floating registers were written
system.cpu0.num_cc_register_reads          1930455033                       # number of times the CC registers were read
system.cpu0.num_cc_register_writes          723979503                       # number of times the CC registers were written
system.cpu0.num_mem_refs                    367773055                       # number of memory refs
system.cpu0.num_load_insts                  223543187                       # Number of load instructions
system.cpu0.num_store_insts                 144229868                       # Number of store instructions
system.cpu0.num_idle_cycles                  0.002000                       # Number of idle cycles
system.cpu0.num_busy_cycles              3063985235.998000                       # Number of busy cycles
system.cpu0.not_idle_fraction                1.000000                       # Percentage of non-idle cycles
system.cpu0.idle_fraction                    0.000000                       # Percentage of idle cycles
system.cpu0.Branches                        307074379                       # Number of branches fetched
system.cpu0.op_class::No_OpClass             47297327      1.96%      1.96% # Class of executed instruction
system.cpu0.op_class::IntAlu               1753202144     72.52%     74.48% # Class of executed instruction
system.cpu0.op_class::IntMult                     387      0.00%     74.48% # Class of executed instruction
system.cpu0.op_class::IntDiv                203623708      8.42%     82.90% # Class of executed instruction
system.cpu0.op_class::FloatAdd               45692173      1.89%     84.79% # Class of executed instruction
system.cpu0.op_class::FloatCmp                      0      0.00%     84.79% # Class of executed instruction
system.cpu0.op_class::FloatCvt                      0      0.00%     84.79% # Class of executed instruction
system.cpu0.op_class::FloatMult                     0      0.00%     84.79% # Class of executed instruction
system.cpu0.op_class::FloatDiv                      0      0.00%     84.79% # Class of executed instruction
system.cpu0.op_class::FloatSqrt                     0      0.00%     84.79% # Class of executed instruction
system.cpu0.op_class::SimdAdd                       0      0.00%     84.79% # Class of executed instruction
system.cpu0.op_class::SimdAddAcc                    0      0.00%     84.79% # Class of executed instruction
system.cpu0.op_class::SimdAlu                       0      0.00%     84.79% # Class of executed instruction
system.cpu0.op_class::SimdCmp                       0      0.00%     84.79% # Class of executed instruction
system.cpu0.op_class::SimdCvt                       0      0.00%     84.79% # Class of executed instruction
system.cpu0.op_class::SimdMisc                      0      0.00%     84.79% # Class of executed instruction
system.cpu0.op_class::SimdMult                      0      0.00%     84.79% # Class of executed instruction
system.cpu0.op_class::SimdMultAcc                   0      0.00%     84.79% # Class of executed instruction
system.cpu0.op_class::SimdShift                     0      0.00%     84.79% # Class of executed instruction
system.cpu0.op_class::SimdShiftAcc                  0      0.00%     84.79% # Class of executed instruction
system.cpu0.op_class::SimdSqrt                      0      0.00%     84.79% # Class of executed instruction
system.cpu0.op_class::SimdFloatAdd                  0      0.00%     84.79% # Class of executed instruction
system.cpu0.op_class::SimdFloatAlu                  0      0.00%     84.79% # Class of executed instruction
system.cpu0.op_class::SimdFloatCmp                  0      0.00%     84.79% # Class of executed instruction
system.cpu0.op_class::SimdFloatCvt                  0      0.00%     84.79% # Class of executed instruction
system.cpu0.op_class::SimdFloatDiv                  0      0.00%     84.79% # Class of executed instruction
system.cpu0.op_class::SimdFloatMisc                 0      0.00%     84.79% # Class of executed instruction
system.cpu0.op_class::SimdFloatMult                 0      0.00%     84.79% # Class of executed instruction
system.cpu0.op_class::SimdFloatMultAcc              0      0.00%     84.79% # Class of executed instruction
system.cpu0.op_class::SimdFloatSqrt                 0      0.00%     84.79% # Class of executed instruction
system.cpu0.op_class::MemRead               223543187      9.25%     94.03% # Class of executed instruction
system.cpu0.op_class::MemWrite              144229868      5.97%    100.00% # Class of executed instruction
system.cpu0.op_class::IprAccess                     0      0.00%    100.00% # Class of executed instruction
system.cpu0.op_class::InstPrefetch                  0      0.00%    100.00% # Class of executed instruction
system.cpu0.op_class::total                2417588794                       # Class of executed instruction
system.cpu1.apic_clk_domain.clock                8000                       # Clock period in ticks
system.cpu1.numCycles                      3062437926                       # number of cpu cycles simulated
system.cpu1.numWorkItemsStarted                     0                       # number of work items this cpu started
system.cpu1.numWorkItemsCompleted                   0                       # number of work items this cpu completed
system.cpu1.committedInsts                   14517666                       # Number of instructions committed
system.cpu1.committedOps                     29033757                       # Number of ops (including micro ops) committed
system.cpu1.num_int_alu_accesses             21791557                       # Number of integer alu accesses
system.cpu1.num_fp_alu_accesses              14221533                       # Number of float alu accesses
system.cpu1.num_func_calls                      40491                       # number of times a function call or return occured
system.cpu1.num_conditional_control_insts      1783388                       # number of instructions that are conditional controls
system.cpu1.num_int_insts                    21791557                       # number of integer instructions
system.cpu1.num_fp_insts                     14221533                       # number of float instructions
system.cpu1.num_int_register_reads           38295436                       # number of times the integer registers were read
system.cpu1.num_int_register_writes          13006896                       # number of times the integer registers were written
system.cpu1.num_fp_register_reads            21544607                       # number of times the floating registers were read
system.cpu1.num_fp_register_writes           14201308                       # number of times the floating registers were written
system.cpu1.num_cc_register_reads            10720594                       # number of times the CC registers were read
system.cpu1.num_cc_register_writes           10714260                       # number of times the CC registers were written
system.cpu1.num_mem_refs                      7083855                       # number of memory refs
system.cpu1.num_load_insts                    7043298                       # Number of load instructions
system.cpu1.num_store_insts                     40557                       # Number of store instructions
system.cpu1.num_idle_cycles              2998439022.722569                       # Number of idle cycles
system.cpu1.num_busy_cycles              63998903.277432                       # Number of busy cycles
system.cpu1.not_idle_fraction                0.020898                       # Percentage of non-idle cycles
system.cpu1.idle_fraction                    0.979102                       # Percentage of idle cycles
system.cpu1.Branches                          1845678                       # Number of branches fetched
system.cpu1.op_class::No_OpClass                    2      0.00%      0.00% # Class of executed instruction
system.cpu1.op_class::IntAlu                 14647016     50.45%     50.45% # Class of executed instruction
system.cpu1.op_class::IntMult                   60671      0.21%     50.66% # Class of executed instruction
system.cpu1.op_class::IntDiv                       14      0.00%     50.66% # Class of executed instruction
system.cpu1.op_class::FloatAdd                7242199     24.94%     75.60% # Class of executed instruction
system.cpu1.op_class::FloatCmp                      0      0.00%     75.60% # Class of executed instruction
system.cpu1.op_class::FloatCvt                      0      0.00%     75.60% # Class of executed instruction
system.cpu1.op_class::FloatMult                     0      0.00%     75.60% # Class of executed instruction
system.cpu1.op_class::FloatDiv                      0      0.00%     75.60% # Class of executed instruction
system.cpu1.op_class::FloatSqrt                     0      0.00%     75.60% # Class of executed instruction
system.cpu1.op_class::SimdAdd                       0      0.00%     75.60% # Class of executed instruction
system.cpu1.op_class::SimdAddAcc                    0      0.00%     75.60% # Class of executed instruction
system.cpu1.op_class::SimdAlu                       0      0.00%     75.60% # Class of executed instruction
system.cpu1.op_class::SimdCmp                       0      0.00%     75.60% # Class of executed instruction
system.cpu1.op_class::SimdCvt                       0      0.00%     75.60% # Class of executed instruction
system.cpu1.op_class::SimdMisc                      0      0.00%     75.60% # Class of executed instruction
system.cpu1.op_class::SimdMult                      0      0.00%     75.60% # Class of executed instruction
system.cpu1.op_class::SimdMultAcc                   0      0.00%     75.60% # Class of executed instruction
system.cpu1.op_class::SimdShift                     0      0.00%     75.60% # Class of executed instruction
system.cpu1.op_class::SimdShiftAcc                  0      0.00%     75.60% # Class of executed instruction
system.cpu1.op_class::SimdSqrt                      0      0.00%     75.60% # Class of executed instruction
system.cpu1.op_class::SimdFloatAdd                  0      0.00%     75.60% # Class of executed instruction
system.cpu1.op_class::SimdFloatAlu                  0      0.00%     75.60% # Class of executed instruction
system.cpu1.op_class::SimdFloatCmp                  0      0.00%     75.60% # Class of executed instruction
system.cpu1.op_class::SimdFloatCvt                  0      0.00%     75.60% # Class of executed instruction
system.cpu1.op_class::SimdFloatDiv                  0      0.00%     75.60% # Class of executed instruction
system.cpu1.op_class::SimdFloatMisc                 0      0.00%     75.60% # Class of executed instruction
system.cpu1.op_class::SimdFloatMult                 0      0.00%     75.60% # Class of executed instruction
system.cpu1.op_class::SimdFloatMultAcc              0      0.00%     75.60% # Class of executed instruction
system.cpu1.op_class::SimdFloatSqrt                 0      0.00%     75.60% # Class of executed instruction
system.cpu1.op_class::MemRead                 7043298     24.26%     99.86% # Class of executed instruction
system.cpu1.op_class::MemWrite                  40557      0.14%    100.00% # Class of executed instruction
system.cpu1.op_class::IprAccess                     0      0.00%    100.00% # Class of executed instruction
system.cpu1.op_class::InstPrefetch                  0      0.00%    100.00% # Class of executed instruction
system.cpu1.op_class::total                  29033757                       # Class of executed instruction
system.cpu2.apic_clk_domain.clock                8000                       # Clock period in ticks
system.cpu2.numCycles                      3062437794                       # number of cpu cycles simulated
system.cpu2.numWorkItemsStarted                     0                       # number of work items this cpu started
system.cpu2.numWorkItemsCompleted                   0                       # number of work items this cpu completed
system.cpu2.committedInsts                   14517666                       # Number of instructions committed
system.cpu2.committedOps                     29033757                       # Number of ops (including micro ops) committed
system.cpu2.num_int_alu_accesses             21791557                       # Number of integer alu accesses
system.cpu2.num_fp_alu_accesses              14221533                       # Number of float alu accesses
system.cpu2.num_func_calls                      40491                       # number of times a function call or return occured
system.cpu2.num_conditional_control_insts      1783388                       # number of instructions that are conditional controls
system.cpu2.num_int_insts                    21791557                       # number of integer instructions
system.cpu2.num_fp_insts                     14221533                       # number of float instructions
system.cpu2.num_int_register_reads           38295436                       # number of times the integer registers were read
system.cpu2.num_int_register_writes          13006896                       # number of times the integer registers were written
system.cpu2.num_fp_register_reads            21544607                       # number of times the floating registers were read
system.cpu2.num_fp_register_writes           14201308                       # number of times the floating registers were written
system.cpu2.num_cc_register_reads            10720594                       # number of times the CC registers were read
system.cpu2.num_cc_register_writes           10714260                       # number of times the CC registers were written
system.cpu2.num_mem_refs                      7083855                       # number of memory refs
system.cpu2.num_load_insts                    7043298                       # Number of load instructions
system.cpu2.num_store_insts                     40557                       # Number of store instructions
system.cpu2.num_idle_cycles              2998440131.855360                       # Number of idle cycles
system.cpu2.num_busy_cycles              63997662.144640                       # Number of busy cycles
system.cpu2.not_idle_fraction                0.020898                       # Percentage of non-idle cycles
system.cpu2.idle_fraction                    0.979102                       # Percentage of idle cycles
system.cpu2.Branches                          1845678                       # Number of branches fetched
system.cpu2.op_class::No_OpClass                    2      0.00%      0.00% # Class of executed instruction
system.cpu2.op_class::IntAlu                 14647016     50.45%     50.45% # Class of executed instruction
system.cpu2.op_class::IntMult                   60671      0.21%     50.66% # Class of executed instruction
system.cpu2.op_class::IntDiv                       14      0.00%     50.66% # Class of executed instruction
system.cpu2.op_class::FloatAdd                7242199     24.94%     75.60% # Class of executed instruction
system.cpu2.op_class::FloatCmp                      0      0.00%     75.60% # Class of executed instruction
system.cpu2.op_class::FloatCvt                      0      0.00%     75.60% # Class of executed instruction
system.cpu2.op_class::FloatMult                     0      0.00%     75.60% # Class of executed instruction
system.cpu2.op_class::FloatDiv                      0      0.00%     75.60% # Class of executed instruction
system.cpu2.op_class::FloatSqrt                     0      0.00%     75.60% # Class of executed instruction
system.cpu2.op_class::SimdAdd                       0      0.00%     75.60% # Class of executed instruction
system.cpu2.op_class::SimdAddAcc                    0      0.00%     75.60% # Class of executed instruction
system.cpu2.op_class::SimdAlu                       0      0.00%     75.60% # Class of executed instruction
system.cpu2.op_class::SimdCmp                       0      0.00%     75.60% # Class of executed instruction
system.cpu2.op_class::SimdCvt                       0      0.00%     75.60% # Class of executed instruction
system.cpu2.op_class::SimdMisc                      0      0.00%     75.60% # Class of executed instruction
system.cpu2.op_class::SimdMult                      0      0.00%     75.60% # Class of executed instruction
system.cpu2.op_class::SimdMultAcc                   0      0.00%     75.60% # Class of executed instruction
system.cpu2.op_class::SimdShift                     0      0.00%     75.60% # Class of executed instruction
system.cpu2.op_class::SimdShiftAcc                  0      0.00%     75.60% # Class of executed instruction
system.cpu2.op_class::SimdSqrt                      0      0.00%     75.60% # Class of executed instruction
system.cpu2.op_class::SimdFloatAdd                  0      0.00%     75.60% # Class of executed instruction
system.cpu2.op_class::SimdFloatAlu                  0      0.00%     75.60% # Class of executed instruction
system.cpu2.op_class::SimdFloatCmp                  0      0.00%     75.60% # Class of executed instruction
system.cpu2.op_class::SimdFloatCvt                  0      0.00%     75.60% # Class of executed instruction
system.cpu2.op_class::SimdFloatDiv                  0      0.00%     75.60% # Class of executed instruction
system.cpu2.op_class::SimdFloatMisc                 0      0.00%     75.60% # Class of executed instruction
system.cpu2.op_class::SimdFloatMult                 0      0.00%     75.60% # Class of executed instruction
system.cpu2.op_class::SimdFloatMultAcc              0      0.00%     75.60% # Class of executed instruction
system.cpu2.op_class::SimdFloatSqrt                 0      0.00%     75.60% # Class of executed instruction
system.cpu2.op_class::MemRead                 7043298     24.26%     99.86% # Class of executed instruction
system.cpu2.op_class::MemWrite                  40557      0.14%    100.00% # Class of executed instruction
system.cpu2.op_class::IprAccess                     0      0.00%    100.00% # Class of executed instruction
system.cpu2.op_class::InstPrefetch                  0      0.00%    100.00% # Class of executed instruction
system.cpu2.op_class::total                  29033757                       # Class of executed instruction
system.cpu3.apic_clk_domain.clock                8000                       # Clock period in ticks
system.cpu3.numCycles                      3063676501                       # number of cpu cycles simulated
system.cpu3.numWorkItemsStarted                     0                       # number of work items this cpu started
system.cpu3.numWorkItemsCompleted                   0                       # number of work items this cpu completed
system.cpu3.committedInsts                   14517666                       # Number of instructions committed
system.cpu3.committedOps                     29033757                       # Number of ops (including micro ops) committed
system.cpu3.num_int_alu_accesses             21791557                       # Number of integer alu accesses
system.cpu3.num_fp_alu_accesses              14221533                       # Number of float alu accesses
system.cpu3.num_func_calls                      40491                       # number of times a function call or return occured
system.cpu3.num_conditional_control_insts      1783388                       # number of instructions that are conditional controls
system.cpu3.num_int_insts                    21791557                       # number of integer instructions
system.cpu3.num_fp_insts                     14221533                       # number of float instructions
system.cpu3.num_int_register_reads           38295436                       # number of times the integer registers were read
system.cpu3.num_int_register_writes          13006896                       # number of times the integer registers were written
system.cpu3.num_fp_register_reads            21544607                       # number of times the floating registers were read
system.cpu3.num_fp_register_writes           14201308                       # number of times the floating registers were written
system.cpu3.num_cc_register_reads            10720594                       # number of times the CC registers were read
system.cpu3.num_cc_register_writes           10714260                       # number of times the CC registers were written
system.cpu3.num_mem_refs                      7083855                       # number of memory refs
system.cpu3.num_load_insts                    7043298                       # Number of load instructions
system.cpu3.num_store_insts                     40557                       # Number of store instructions
system.cpu3.num_idle_cycles              2998414948.583889                       # Number of idle cycles
system.cpu3.num_busy_cycles              65261552.416112                       # Number of busy cycles
system.cpu3.not_idle_fraction                0.021302                       # Percentage of non-idle cycles
system.cpu3.idle_fraction                    0.978698                       # Percentage of idle cycles
system.cpu3.Branches                          1845678                       # Number of branches fetched
system.cpu3.op_class::No_OpClass                    2      0.00%      0.00% # Class of executed instruction
system.cpu3.op_class::IntAlu                 14647016     50.45%     50.45% # Class of executed instruction
system.cpu3.op_class::IntMult                   60671      0.21%     50.66% # Class of executed instruction
system.cpu3.op_class::IntDiv                       14      0.00%     50.66% # Class of executed instruction
system.cpu3.op_class::FloatAdd                7242199     24.94%     75.60% # Class of executed instruction
system.cpu3.op_class::FloatCmp                      0      0.00%     75.60% # Class of executed instruction
system.cpu3.op_class::FloatCvt                      0      0.00%     75.60% # Class of executed instruction
system.cpu3.op_class::FloatMult                     0      0.00%     75.60% # Class of executed instruction
system.cpu3.op_class::FloatDiv                      0      0.00%     75.60% # Class of executed instruction
system.cpu3.op_class::FloatSqrt                     0      0.00%     75.60% # Class of executed instruction
system.cpu3.op_class::SimdAdd                       0      0.00%     75.60% # Class of executed instruction
system.cpu3.op_class::SimdAddAcc                    0      0.00%     75.60% # Class of executed instruction
system.cpu3.op_class::SimdAlu                       0      0.00%     75.60% # Class of executed instruction
system.cpu3.op_class::SimdCmp                       0      0.00%     75.60% # Class of executed instruction
system.cpu3.op_class::SimdCvt                       0      0.00%     75.60% # Class of executed instruction
system.cpu3.op_class::SimdMisc                      0      0.00%     75.60% # Class of executed instruction
system.cpu3.op_class::SimdMult                      0      0.00%     75.60% # Class of executed instruction
system.cpu3.op_class::SimdMultAcc                   0      0.00%     75.60% # Class of executed instruction
system.cpu3.op_class::SimdShift                     0      0.00%     75.60% # Class of executed instruction
system.cpu3.op_class::SimdShiftAcc                  0      0.00%     75.60% # Class of executed instruction
system.cpu3.op_class::SimdSqrt                      0      0.00%     75.60% # Class of executed instruction
system.cpu3.op_class::SimdFloatAdd                  0      0.00%     75.60% # Class of executed instruction
system.cpu3.op_class::SimdFloatAlu                  0      0.00%     75.60% # Class of executed instruction
system.cpu3.op_class::SimdFloatCmp                  0      0.00%     75.60% # Class of executed instruction
system.cpu3.op_class::SimdFloatCvt                  0      0.00%     75.60% # Class of executed instruction
system.cpu3.op_class::SimdFloatDiv                  0      0.00%     75.60% # Class of executed instruction
system.cpu3.op_class::SimdFloatMisc                 0      0.00%     75.60% # Class of executed instruction
system.cpu3.op_class::SimdFloatMult                 0      0.00%     75.60% # Class of executed instruction
system.cpu3.op_class::SimdFloatMultAcc              0      0.00%     75.60% # Class of executed instruction
system.cpu3.op_class::SimdFloatSqrt                 0      0.00%     75.60% # Class of executed instruction
system.cpu3.op_class::MemRead                 7043298     24.26%     99.86% # Class of executed instruction
system.cpu3.op_class::MemWrite                  40557      0.14%    100.00% # Class of executed instruction
system.cpu3.op_class::IprAccess                     0      0.00%    100.00% # Class of executed instruction
system.cpu3.op_class::InstPrefetch                  0      0.00%    100.00% # Class of executed instruction
system.cpu3.op_class::total                  29033757                       # Class of executed instruction
system.cpu4.apic_clk_domain.clock                8000                       # Clock period in ticks
system.cpu4.numCycles                      3061986349                       # number of cpu cycles simulated
system.cpu4.numWorkItemsStarted                     0                       # number of work items this cpu started
system.cpu4.numWorkItemsCompleted                   0                       # number of work items this cpu completed
system.cpu4.committedInsts                   14517666                       # Number of instructions committed
system.cpu4.committedOps                     29033757                       # Number of ops (including micro ops) committed
system.cpu4.num_int_alu_accesses             21791557                       # Number of integer alu accesses
system.cpu4.num_fp_alu_accesses              14221533                       # Number of float alu accesses
system.cpu4.num_func_calls                      40491                       # number of times a function call or return occured
system.cpu4.num_conditional_control_insts      1783388                       # number of instructions that are conditional controls
system.cpu4.num_int_insts                    21791557                       # number of integer instructions
system.cpu4.num_fp_insts                     14221533                       # number of float instructions
system.cpu4.num_int_register_reads           38295436                       # number of times the integer registers were read
system.cpu4.num_int_register_writes          13006896                       # number of times the integer registers were written
system.cpu4.num_fp_register_reads            21544607                       # number of times the floating registers were read
system.cpu4.num_fp_register_writes           14201308                       # number of times the floating registers were written
system.cpu4.num_cc_register_reads            10720594                       # number of times the CC registers were read
system.cpu4.num_cc_register_writes           10714260                       # number of times the CC registers were written
system.cpu4.num_mem_refs                      7083855                       # number of memory refs
system.cpu4.num_load_insts                    7043298                       # Number of load instructions
system.cpu4.num_store_insts                     40557                       # Number of store instructions
system.cpu4.num_idle_cycles              2998450454.694803                       # Number of idle cycles
system.cpu4.num_busy_cycles              63535894.305197                       # Number of busy cycles
system.cpu4.not_idle_fraction                0.020750                       # Percentage of non-idle cycles
system.cpu4.idle_fraction                    0.979250                       # Percentage of idle cycles
system.cpu4.Branches                          1845678                       # Number of branches fetched
system.cpu4.op_class::No_OpClass                    2      0.00%      0.00% # Class of executed instruction
system.cpu4.op_class::IntAlu                 14647016     50.45%     50.45% # Class of executed instruction
system.cpu4.op_class::IntMult                   60671      0.21%     50.66% # Class of executed instruction
system.cpu4.op_class::IntDiv                       14      0.00%     50.66% # Class of executed instruction
system.cpu4.op_class::FloatAdd                7242199     24.94%     75.60% # Class of executed instruction
system.cpu4.op_class::FloatCmp                      0      0.00%     75.60% # Class of executed instruction
system.cpu4.op_class::FloatCvt                      0      0.00%     75.60% # Class of executed instruction
system.cpu4.op_class::FloatMult                     0      0.00%     75.60% # Class of executed instruction
system.cpu4.op_class::FloatDiv                      0      0.00%     75.60% # Class of executed instruction
system.cpu4.op_class::FloatSqrt                     0      0.00%     75.60% # Class of executed instruction
system.cpu4.op_class::SimdAdd                       0      0.00%     75.60% # Class of executed instruction
system.cpu4.op_class::SimdAddAcc                    0      0.00%     75.60% # Class of executed instruction
system.cpu4.op_class::SimdAlu                       0      0.00%     75.60% # Class of executed instruction
system.cpu4.op_class::SimdCmp                       0      0.00%     75.60% # Class of executed instruction
system.cpu4.op_class::SimdCvt                       0      0.00%     75.60% # Class of executed instruction
system.cpu4.op_class::SimdMisc                      0      0.00%     75.60% # Class of executed instruction
system.cpu4.op_class::SimdMult                      0      0.00%     75.60% # Class of executed instruction
system.cpu4.op_class::SimdMultAcc                   0      0.00%     75.60% # Class of executed instruction
system.cpu4.op_class::SimdShift                     0      0.00%     75.60% # Class of executed instruction
system.cpu4.op_class::SimdShiftAcc                  0      0.00%     75.60% # Class of executed instruction
system.cpu4.op_class::SimdSqrt                      0      0.00%     75.60% # Class of executed instruction
system.cpu4.op_class::SimdFloatAdd                  0      0.00%     75.60% # Class of executed instruction
system.cpu4.op_class::SimdFloatAlu                  0      0.00%     75.60% # Class of executed instruction
system.cpu4.op_class::SimdFloatCmp                  0      0.00%     75.60% # Class of executed instruction
system.cpu4.op_class::SimdFloatCvt                  0      0.00%     75.60% # Class of executed instruction
system.cpu4.op_class::SimdFloatDiv                  0      0.00%     75.60% # Class of executed instruction
system.cpu4.op_class::SimdFloatMisc                 0      0.00%     75.60% # Class of executed instruction
system.cpu4.op_class::SimdFloatMult                 0      0.00%     75.60% # Class of executed instruction
system.cpu4.op_class::SimdFloatMultAcc              0      0.00%     75.60% # Class of executed instruction
system.cpu4.op_class::SimdFloatSqrt                 0      0.00%     75.60% # Class of executed instruction
system.cpu4.op_class::MemRead                 7043298     24.26%     99.86% # Class of executed instruction
system.cpu4.op_class::MemWrite                  40557      0.14%    100.00% # Class of executed instruction
system.cpu4.op_class::IprAccess                     0      0.00%    100.00% # Class of executed instruction
system.cpu4.op_class::InstPrefetch                  0      0.00%    100.00% # Class of executed instruction
system.cpu4.op_class::total                  29033757                       # Class of executed instruction
system.ruby.clk_domain.clock                      500                       # Clock period in ticks
system.ruby.delayHist::bucket_size                 64                       # delay histogram for all message
system.ruby.delayHist::max_bucket                 639                       # delay histogram for all message
system.ruby.delayHist::samples               17756157                       # delay histogram for all message
system.ruby.delayHist::mean                  0.672217                       # delay histogram for all message
system.ruby.delayHist::stdev                 2.249066                       # delay histogram for all message
system.ruby.delayHist                    |    17756154    100.00%    100.00% |           0      0.00%    100.00% |           1      0.00%    100.00% |           0      0.00%    100.00% |           1      0.00%    100.00% |           1      0.00%    100.00% |           0      0.00%    100.00% |           0      0.00%    100.00% |           0      0.00%    100.00% |           0      0.00%    100.00% # delay histogram for all message
system.ruby.delayHist::total                 17756157                       # delay histogram for all message
system.ruby.outstanding_req_hist::bucket_size            1                      
system.ruby.outstanding_req_hist::max_bucket            9                      
system.ruby.outstanding_req_hist::samples   1573194503                      
system.ruby.outstanding_req_hist::mean       1.000188                      
system.ruby.outstanding_req_hist::gmean      1.000130                      
system.ruby.outstanding_req_hist::stdev      0.013692                      
system.ruby.outstanding_req_hist         |           0      0.00%      0.00% |  1572899529     99.98%     99.98% |      294974      0.02%    100.00% |           0      0.00%    100.00% |           0      0.00%    100.00% |           0      0.00%    100.00% |           0      0.00%    100.00% |           0      0.00%    100.00% |           0      0.00%    100.00% |           0      0.00%    100.00%
system.ruby.outstanding_req_hist::total    1573194503                      
system.ruby.latency_hist::bucket_size             256                      
system.ruby.latency_hist::max_bucket             2559                      
system.ruby.latency_hist::samples          1573194503                      
system.ruby.latency_hist::mean               1.111204                      
system.ruby.latency_hist::gmean              1.006806                      
system.ruby.latency_hist::stdev              4.180405                      
system.ruby.latency_hist                 |  1573135612    100.00%    100.00% |       41269      0.00%    100.00% |       17159      0.00%    100.00% |         170      0.00%    100.00% |         285      0.00%    100.00% |           8      0.00%    100.00% |           0      0.00%    100.00% |           0      0.00%    100.00% |           0      0.00%    100.00% |           0      0.00%    100.00%
system.ruby.latency_hist::total            1573194503                      
system.ruby.hit_latency_hist::bucket_size          256                      
system.ruby.hit_latency_hist::max_bucket         2559                      
system.ruby.hit_latency_hist::samples      1573194503                      
system.ruby.hit_latency_hist::mean           1.111204                      
system.ruby.hit_latency_hist::gmean          1.006806                      
system.ruby.hit_latency_hist::stdev          4.180405                      
system.ruby.hit_latency_hist             |  1573135612    100.00%    100.00% |       41269      0.00%    100.00% |       17159      0.00%    100.00% |         170      0.00%    100.00% |         285      0.00%    100.00% |           8      0.00%    100.00% |           0      0.00%    100.00% |           0      0.00%    100.00% |           0      0.00%    100.00% |           0      0.00%    100.00%
system.ruby.hit_latency_hist::total        1573194503                      
system.ruby.l0_cntrl0.Dcache.demand_hits    366626277                       # Number of cache demand hits
system.ruby.l0_cntrl0.Dcache.demand_misses      1146840                       # Number of cache demand misses
system.ruby.l0_cntrl0.Dcache.demand_accesses    367773117                       # Number of cache demand accesses
system.ruby.l0_cntrl0.Icache.demand_hits   1102288938                       # Number of cache demand hits
system.ruby.l0_cntrl0.Icache.demand_misses         4772                       # Number of cache demand misses
system.ruby.l0_cntrl0.Icache.demand_accesses   1102293710                       # Number of cache demand accesses
system.ruby.l0_cntrl0.Zcache.demand_hits            0                       # Number of cache demand hits
system.ruby.l0_cntrl0.Zcache.demand_misses            0                       # Number of cache demand misses
system.ruby.l0_cntrl0.Zcache.demand_accesses            0                       # Number of cache demand accesses
system.ruby.l0_cntrl1.Dcache.demand_hits      6706728                       # Number of cache demand hits
system.ruby.l0_cntrl1.Dcache.demand_misses       450855                       # Number of cache demand misses
system.ruby.l0_cntrl1.Dcache.demand_accesses      7157583                       # Number of cache demand accesses
system.ruby.l0_cntrl1.Icache.demand_hits     18623715                       # Number of cache demand hits
system.ruby.l0_cntrl1.Icache.demand_misses          621                       # Number of cache demand misses
system.ruby.l0_cntrl1.Icache.demand_accesses     18624336                       # Number of cache demand accesses
system.ruby.l0_cntrl1.Zcache.demand_hits            0                       # Number of cache demand hits
system.ruby.l0_cntrl1.Zcache.demand_misses            0                       # Number of cache demand misses
system.ruby.l0_cntrl1.Zcache.demand_accesses            0                       # Number of cache demand accesses
system.ruby.l0_cntrl2.Dcache.demand_hits      6705435                       # Number of cache demand hits
system.ruby.l0_cntrl2.Dcache.demand_misses       452148                       # Number of cache demand misses
system.ruby.l0_cntrl2.Dcache.demand_accesses      7157583                       # Number of cache demand accesses
system.ruby.l0_cntrl2.Icache.demand_hits     18623771                       # Number of cache demand hits
system.ruby.l0_cntrl2.Icache.demand_misses          565                       # Number of cache demand misses
system.ruby.l0_cntrl2.Icache.demand_accesses     18624336                       # Number of cache demand accesses
system.ruby.l0_cntrl2.Zcache.demand_hits            0                       # Number of cache demand hits
system.ruby.l0_cntrl2.Zcache.demand_misses            0                       # Number of cache demand misses
system.ruby.l0_cntrl2.Zcache.demand_accesses            0                       # Number of cache demand accesses
system.ruby.l0_cntrl3.Dcache.demand_hits      6705357                       # Number of cache demand hits
system.ruby.l0_cntrl3.Dcache.demand_misses       452226                       # Number of cache demand misses
system.ruby.l0_cntrl3.Dcache.demand_accesses      7157583                       # Number of cache demand accesses
system.ruby.l0_cntrl3.Icache.demand_hits     18623781                       # Number of cache demand hits
system.ruby.l0_cntrl3.Icache.demand_misses          555                       # Number of cache demand misses
system.ruby.l0_cntrl3.Icache.demand_accesses     18624336                       # Number of cache demand accesses
system.ruby.l0_cntrl3.Zcache.demand_hits            0                       # Number of cache demand hits
system.ruby.l0_cntrl3.Zcache.demand_misses            0                       # Number of cache demand misses
system.ruby.l0_cntrl3.Zcache.demand_accesses            0                       # Number of cache demand accesses
system.ruby.l0_cntrl4.Dcache.demand_hits      6706420                       # Number of cache demand hits
system.ruby.l0_cntrl4.Dcache.demand_misses       451163                       # Number of cache demand misses
system.ruby.l0_cntrl4.Dcache.demand_accesses      7157583                       # Number of cache demand accesses
system.ruby.l0_cntrl4.Icache.demand_hits     18623741                       # Number of cache demand hits
system.ruby.l0_cntrl4.Icache.demand_misses          595                       # Number of cache demand misses
system.ruby.l0_cntrl4.Icache.demand_accesses     18624336                       # Number of cache demand accesses
system.ruby.l0_cntrl4.Zcache.demand_hits            0                       # Number of cache demand hits
system.ruby.l0_cntrl4.Zcache.demand_misses            0                       # Number of cache demand misses
system.ruby.l0_cntrl4.Zcache.demand_accesses            0                       # Number of cache demand accesses
system.ruby.l1_cntrl0.cache.demand_hits           217                       # Number of cache demand hits
system.ruby.l1_cntrl0.cache.demand_misses      1151395                       # Number of cache demand misses
system.ruby.l1_cntrl0.cache.demand_accesses      1151612                       # Number of cache demand accesses
system.ruby.l1_cntrl1.cache.demand_hits         37870                       # Number of cache demand hits
system.ruby.l1_cntrl1.cache.demand_misses       413606                       # Number of cache demand misses
system.ruby.l1_cntrl1.cache.demand_accesses       451476                       # Number of cache demand accesses
system.ruby.l1_cntrl2.cache.demand_hits         36438                       # Number of cache demand hits
system.ruby.l1_cntrl2.cache.demand_misses       416275                       # Number of cache demand misses
system.ruby.l1_cntrl2.cache.demand_accesses       452713                       # Number of cache demand accesses
system.ruby.l1_cntrl3.cache.demand_hits         39612                       # Number of cache demand hits
system.ruby.l1_cntrl3.cache.demand_misses       413169                       # Number of cache demand misses
system.ruby.l1_cntrl3.cache.demand_accesses       452781                       # Number of cache demand accesses
system.ruby.l1_cntrl4.cache.demand_hits         39379                       # Number of cache demand hits
system.ruby.l1_cntrl4.cache.demand_misses       412379                       # Number of cache demand misses
system.ruby.l1_cntrl4.cache.demand_accesses       451758                       # Number of cache demand accesses
system.ruby.l2_cntrl0.L2cache.demand_hits      1785648                       # Number of cache demand hits
system.ruby.l2_cntrl0.L2cache.demand_misses      1021176                       # Number of cache demand misses
system.ruby.l2_cntrl0.L2cache.demand_accesses      2806824                       # Number of cache demand accesses
system.ruby.l2_cntrl0.fully_busy_cycles            13                       # cycles for which number of transistions == max transitions
system.ruby.memctrl_clk_domain.clock             1500                       # Clock period in ticks
system.ruby.network.routers00.percent_links_utilized            0                      
system.ruby.network.routers01.percent_links_utilized            0                      
system.ruby.network.routers02.percent_links_utilized            0                      
system.ruby.network.routers03.percent_links_utilized            0                      
system.ruby.network.routers04.percent_links_utilized            0                      
system.ruby.network.routers05.percent_links_utilized     0.197403                      
system.ruby.network.routers05.msg_count.Control::0      1151395                      
system.ruby.network.routers05.msg_count.Request_Control::2         3673                      
system.ruby.network.routers05.msg_count.Response_Data::1      1158675                      
system.ruby.network.routers05.msg_count.Response_Control::1      1146603                      
system.ruby.network.routers05.msg_count.Response_Control::2      1151380                      
system.ruby.network.routers05.msg_count.Writeback_Data::0      1145744                      
system.ruby.network.routers05.msg_count.Writeback_Control::0          730                      
system.ruby.network.routers05.msg_bytes.Control::0      9211160                      
system.ruby.network.routers05.msg_bytes.Request_Control::2        29384                      
system.ruby.network.routers05.msg_bytes.Response_Data::1     83424600                      
system.ruby.network.routers05.msg_bytes.Response_Control::1      9172824                      
system.ruby.network.routers05.msg_bytes.Response_Control::2      9211040                      
system.ruby.network.routers05.msg_bytes.Writeback_Data::0     82493568                      
system.ruby.network.routers05.msg_bytes.Writeback_Control::0         5840                      
system.ruby.network.routers06.percent_links_utilized     0.041034                      
system.ruby.network.routers06.msg_count.Control::0       413606                      
system.ruby.network.routers06.msg_count.Request_Control::2         1520                      
system.ruby.network.routers06.msg_count.Response_Data::1       413661                      
system.ruby.network.routers06.msg_count.Response_Control::1       276737                      
system.ruby.network.routers06.msg_count.Response_Control::2       294661                      
system.ruby.network.routers06.msg_count.Writeback_Data::0         5493                      
system.ruby.network.routers06.msg_count.Writeback_Data::1           46                      
system.ruby.network.routers06.msg_count.Writeback_Control::0       269797                      
system.ruby.network.routers06.msg_bytes.Control::0      3308848                      
system.ruby.network.routers06.msg_bytes.Request_Control::2        12160                      
system.ruby.network.routers06.msg_bytes.Response_Data::1     29783592                      
system.ruby.network.routers06.msg_bytes.Response_Control::1      2213896                      
system.ruby.network.routers06.msg_bytes.Response_Control::2      2357288                      
[...]
system.ruby.L1Cache_Controller.S.Load    |           3    100.00%    100.00% |           0      0.00%    100.00% |           0      0.00%    100.00% |           0      0.00%    100.00% |           0      0.00%    100.00%
system.ruby.L1Cache_Controller.S.Load::total            3                      
system.ruby.L1Cache_Controller.S.Store   |          43     91.49%     91.49% |           1      2.13%     93.62% |           1      2.13%     95.74% |           1      2.13%     97.87% |           1      2.13%    100.00%
system.ruby.L1Cache_Controller.S.Store::total           47                      
system.ruby.L1Cache_Controller.S.L0_Invalidate_Own |           0      0.00%      0.00% |      134166     32.60%     32.60% |      133225     32.37%     64.97% |      134130     32.59%     97.56% |       10036      2.44%    100.00%
system.ruby.L1Cache_Controller.S.L0_Invalidate_Own::total       411557                      
system.ruby.L1Cache_Controller.S.L0_Invalidate_Else |           2      7.14%      7.14% |           5     17.86%     25.00% |           5     17.86%     42.86% |           6     21.43%     64.29% |          10     35.71%    100.00%
system.ruby.L1Cache_Controller.S.L0_Invalidate_Else::total           28                      
system.ruby.L1Cache_Controller.SS.Load   |          13      0.67%      0.67% |          10      0.52%      1.19% |        1159     59.83%     61.02% |           0      0.00%     61.02% |         755     38.98%    100.00%
system.ruby.L1Cache_Controller.SS.Load::total         1937                      
system.ruby.L1Cache_Controller.SS.Inv    |           8     12.70%     12.70% |          14     22.22%     34.92% |          15     23.81%     58.73% |          14     22.22%     80.95% |          12     19.05%    100.00%
system.ruby.L1Cache_Controller.SS.Inv::total           63                      
system.ruby.L1Cache_Controller.SS.L1_Replacement |         770      0.14%      0.14% |      134171     25.02%     25.16% |      133254     24.85%     50.01% |      134130     25.01%     75.01% |      134006     24.99%    100.00%
system.ruby.L1Cache_Controller.SS.L1_Replacement::total       536331                      
system.ruby.L1Cache_Controller.E.WriteBack |        1065      0.09%      0.09% |      269966     22.60%     22.68% |      272659     22.82%     45.51% |      269790     22.58%     68.09% |      381304     31.91%    100.00%
system.ruby.L1Cache_Controller.E.WriteBack::total      1194784                      
system.ruby.L1Cache_Controller.E.L0_Invalidate_Own |        4891     22.14%     22.14% |        4178     18.92%     41.06% |        4904     22.20%     63.26% |        3899     17.65%     80.91% |        4216     19.09%    100.00%
system.ruby.L1Cache_Controller.E.L0_Invalidate_Own::total        22088                      
system.ruby.L1Cache_Controller.E.L0_Invalidate_Else |          10      0.07%      0.07% |          21      0.15%      0.22% |        1357      9.62%      9.84% |          64      0.45%     10.29% |       12654     89.71%    100.00%
system.ruby.L1Cache_Controller.E.L0_Invalidate_Else::total        14106                      
system.ruby.L1Cache_Controller.EE.Load   |           0      0.00%      0.00% |           0      0.00%      0.00% |           1     25.00%     25.00% |           0      0.00%     25.00% |           3     75.00%    100.00%
system.ruby.L1Cache_Controller.EE.Load::total            4                      
system.ruby.L1Cache_Controller.EE.Inv    |           3      1.20%      1.20% |           0      0.00%      1.20% |         161     64.66%     65.86% |          59     23.69%     89.56% |          26     10.44%    100.00%
system.ruby.L1Cache_Controller.EE.Inv::total          249                      
system.ruby.L1Cache_Controller.EE.L1_Replacement |        4055     19.46%     19.46% |        4078     19.57%     39.03% |        4802     23.04%     62.07% |        3788     18.18%     80.25% |        4115     19.75%    100.00%
system.ruby.L1Cache_Controller.EE.L1_Replacement::total        20838                      
system.ruby.L1Cache_Controller.EE.Fwd_GETX |           0      0.00%      0.00% |           0      0.00%      0.00% |           0      0.00%      0.00% |           1    100.00%    100.00% |           0      0.00%    100.00%
system.ruby.L1Cache_Controller.EE.Fwd_GETX::total            1                      
system.ruby.L1Cache_Controller.EE.Fwd_GETS |           7      0.05%      0.05% |          19      0.14%      0.19% |        1193      8.62%      8.81% |           3      0.02%      8.83% |       12619     91.17%    100.00%
system.ruby.L1Cache_Controller.EE.Fwd_GETS::total        13841                      
system.ruby.L1Cache_Controller.M.WriteBack |     1143469     87.99%     87.99% |       39016      3.00%     90.99% |       36484      2.81%     93.80% |       40771      3.14%     96.94% |       39829      3.06%    100.00%
system.ruby.L1Cache_Controller.M.WriteBack::total      1299569                      
system.ruby.L1Cache_Controller.M.L0_Invalidate_Own |         888     79.43%     79.43% |          78      6.98%     86.40% |          33      2.95%     89.36% |          81      7.25%     96.60% |          38      3.40%    100.00%
system.ruby.L1Cache_Controller.M.L0_Invalidate_Own::total         1118                      
system.ruby.L1Cache_Controller.M.L0_Invalidate_Else |         329     88.20%     88.20% |          14      3.75%     91.96% |          13      3.49%     95.44% |          13      3.49%     98.93% |           4      1.07%    100.00%
system.ruby.L1Cache_Controller.M.L0_Invalidate_Else::total          373                      
system.ruby.L1Cache_Controller.MM.Load   |         171      0.11%      0.11% |       37860     24.98%     25.10% |       35278     23.28%     48.38% |       39612     26.14%     74.51% |       38621     25.49%    100.00%
system.ruby.L1Cache_Controller.MM.Load::total       151542                      
system.ruby.L1Cache_Controller.MM.Store  |          30    100.00%    100.00% |           0      0.00%    100.00% |           0      0.00%    100.00% |           0      0.00%    100.00% |           0      0.00%    100.00%
system.ruby.L1Cache_Controller.MM.Store::total           30                      
system.ruby.L1Cache_Controller.MM.Inv    |           0      0.00%      0.00% |          46      5.34%      5.34% |          33      3.83%      9.16% |         488     56.61%     65.78% |         295     34.22%    100.00%
system.ruby.L1Cache_Controller.MM.Inv::total          862                      
system.ruby.L1Cache_Controller.MM.L1_Replacement |     1142419     51.28%     51.28% |      271212     12.17%     63.45% |      273926     12.29%     75.74% |      270605     12.15%     87.89% |      269840     12.11%    100.00%
system.ruby.L1Cache_Controller.MM.L1_Replacement::total      2228002                      
system.ruby.L1Cache_Controller.MM.Fwd_GETX |           1      8.33%      8.33% |           4     33.33%     41.67% |           3     25.00%     66.67% |           2     16.67%     83.33% |           2     16.67%    100.00%
system.ruby.L1Cache_Controller.MM.Fwd_GETX::total           12                      
system.ruby.L1Cache_Controller.MM.Fwd_GETS |        3654      3.14%      3.14% |           7      0.01%      3.15% |           6      0.01%      3.16% |           7      0.01%      3.16% |      112524     96.84%    100.00%
system.ruby.L1Cache_Controller.MM.Fwd_GETS::total       116198                      
system.ruby.L1Cache_Controller.IS.Data_Exclusive |        6584      0.53%      0.53% |      274250     22.26%     22.80% |      279005     22.65%     45.45% |      273834     22.23%     67.68% |      398178     32.32%    100.00%
system.ruby.L1Cache_Controller.IS.Data_Exclusive::total      1231851                      
system.ruby.L1Cache_Controller.IS.DataS_fromL1 |          35      0.03%      0.03% |       19133     14.71%     14.74% |      106039     81.54%     96.28% |           8      0.01%     96.29% |        4824      3.71%    100.00%
system.ruby.L1Cache_Controller.IS.DataS_fromL1::total       130039                      
system.ruby.L1Cache_Controller.IS.Data_all_Acks |          15      0.01%      0.01% |      118945     40.31%     40.32% |       29948     10.15%     50.47% |      138043     46.79%     97.26% |        8095      2.74%    100.00%
system.ruby.L1Cache_Controller.IS.Data_all_Acks::total       295046                      
system.ruby.L1Cache_Controller.IM.Data   |           1     20.00%     20.00% |           1     20.00%     40.00% |           1     20.00%     60.00% |           1     20.00%     80.00% |           1     20.00%    100.00%
system.ruby.L1Cache_Controller.IM.Data::total            5                      
system.ruby.L1Cache_Controller.IM.Data_all_Acks |     1144717     99.55%     99.55% |        1276      0.11%     99.67% |        1281      0.11%     99.78% |        1282      0.11%     99.89% |        1280      0.11%    100.00%
system.ruby.L1Cache_Controller.IM.Data_all_Acks::total      1149836                      
system.ruby.L1Cache_Controller.SM.Ack    |          74     94.87%     94.87% |           1      1.28%     96.15% |           1      1.28%     97.44% |           1      1.28%     98.72% |           1      1.28%    100.00%
system.ruby.L1Cache_Controller.SM.Ack::total           78                      
system.ruby.L1Cache_Controller.SM.Ack_all |          44     84.62%     84.62% |           2      3.85%     88.46% |           2      3.85%     92.31% |           2      3.85%     96.15% |           2      3.85%    100.00%
system.ruby.L1Cache_Controller.SM.Ack_all::total           52                      
system.ruby.L1Cache_Controller.M_I.Inv   |           0      0.00%      0.00% |           0      0.00%      0.00% |           1    100.00%    100.00% |           0      0.00%    100.00% |           0      0.00%    100.00%
system.ruby.L1Cache_Controller.M_I.Inv::total            1                      
system.ruby.L1Cache_Controller.M_I.WB_Ack |     1146474     50.98%     50.98% |      275290     12.24%     63.22% |      278727     12.39%     75.62% |      274393     12.20%     87.82% |      273955     12.18%    100.00%
system.ruby.L1Cache_Controller.M_I.WB_Ack::total      2248839                      
system.ruby.L1Cache_Controller.SINK_WB_ACK.WB_Ack |           0      0.00%      0.00% |           0      0.00%      0.00% |           1    100.00%    100.00% |           0      0.00%    100.00% |           0      0.00%    100.00%
system.ruby.L1Cache_Controller.SINK_WB_ACK.WB_Ack::total            1                      
system.ruby.L1Cache_Controller.S_IL0.L0_Invalidate_Own |           0      0.00%      0.00% |      134166     32.60%     32.60% |      133225     32.37%     64.97% |      134130     32.59%     97.56% |       10036      2.44%    100.00%
system.ruby.L1Cache_Controller.S_IL0.L0_Invalidate_Own::total       411557                      
system.ruby.L1Cache_Controller.S_IL0.L0_Invalidate_Else |           2      7.14%      7.14% |           5     17.86%     25.00% |           5     17.86%     42.86% |           6     21.43%     64.29% |          10     35.71%    100.00%
system.ruby.L1Cache_Controller.S_IL0.L0_Invalidate_Else::total           28                      
system.ruby.L1Cache_Controller.S_IL0.L0_Ack |           2      0.00%      0.00% |      134171     32.60%     32.60% |      133230     32.37%     64.97% |      134136     32.59%     97.56% |       10046      2.44%    100.00%
system.ruby.L1Cache_Controller.S_IL0.L0_Ack::total       411585                      
system.ruby.L1Cache_Controller.E_IL0.WriteBack |           0      0.00%      0.00% |           0      0.00%      0.00% |           0      0.00%      0.00% |           0      0.00%      0.00% |           5    100.00%    100.00%
system.ruby.L1Cache_Controller.E_IL0.WriteBack::total            5                      
system.ruby.L1Cache_Controller.E_IL0.L0_DataAck |         836     66.56%     66.56% |         102      8.12%     74.68% |         104      8.28%     82.96% |         112      8.92%     91.88% |         102      8.12%    100.00%
system.ruby.L1Cache_Controller.E_IL0.L0_DataAck::total         1256                      
system.ruby.L1Cache_Controller.E_IL0.L0_Invalidate_Own |        4891     22.14%     22.14% |        4178     18.92%     41.06% |        4904     22.20%     63.26% |        3899     17.65%     80.91% |        4216     19.09%    100.00%
system.ruby.L1Cache_Controller.E_IL0.L0_Invalidate_Own::total        22088                      
system.ruby.L1Cache_Controller.E_IL0.L0_Invalidate_Else |          10      0.07%      0.07% |          21      0.15%      0.22% |        1357      9.62%      9.84% |          64      0.45%     10.29% |       12654     89.71%    100.00%
system.ruby.L1Cache_Controller.E_IL0.L0_Invalidate_Else::total        14106                      
system.ruby.L1Cache_Controller.E_IL0.L0_Ack |        4065     11.64%     11.64% |        4097     11.73%     23.36% |        6157     17.63%     40.99% |        3851     11.02%     52.01% |       16763     47.99%    100.00%
system.ruby.L1Cache_Controller.E_IL0.L0_Ack::total        34933                      
system.ruby.L1Cache_Controller.M_IL0.L0_DataAck |        1175     96.87%     96.87% |           9      0.74%     97.61% |          10      0.82%     98.43% |          12      0.99%     99.42% |           7      0.58%    100.00%
system.ruby.L1Cache_Controller.M_IL0.L0_DataAck::total         1213                      
system.ruby.L1Cache_Controller.M_IL0.L0_Invalidate_Own |         888     79.43%     79.43% |          78      6.98%     86.40% |          33      2.95%     89.36% |          81      7.25%     96.60% |          38      3.40%    100.00%
system.ruby.L1Cache_Controller.M_IL0.L0_Invalidate_Own::total         1118                      
system.ruby.L1Cache_Controller.M_IL0.L0_Invalidate_Else |         329     88.20%     88.20% |          14      3.75%     91.96% |          13      3.49%     95.44% |          13      3.49%     98.93% |           4      1.07%    100.00%
system.ruby.L1Cache_Controller.M_IL0.L0_Invalidate_Else::total          373                      
system.ruby.L1Cache_Controller.M_IL0.L0_Ack |          42     15.11%     15.11% |          83     29.86%     44.96% |          36     12.95%     57.91% |          82     29.50%     87.41% |          35     12.59%    100.00%
system.ruby.L1Cache_Controller.M_IL0.L0_Ack::total          278                      
system.ruby.L1Cache_Controller.MM_IL0.Fwd_GETS |           0      0.00%      0.00% |           0      0.00%      0.00% |           0      0.00%      0.00% |           0      0.00%      0.00% |           5    100.00%    100.00%
system.ruby.L1Cache_Controller.MM_IL0.Fwd_GETS::total            5                      
system.ruby.L1Cache_Controller.MM_IL0.L0_Ack |           0      0.00%      0.00% |           0      0.00%      0.00% |           0      0.00%      0.00% |           0      0.00%      0.00% |           5    100.00%    100.00%
system.ruby.L1Cache_Controller.MM_IL0.L0_Ack::total            5                      
system.ruby.L2Cache_Controller.L1_GETS        1681660      0.00%      0.00%
system.ruby.L2Cache_Controller.L1_GETX        1149847      0.00%      0.00%
system.ruby.L2Cache_Controller.L1_UPGRADE           47      0.00%      0.00%
system.ruby.L2Cache_Controller.L1_PUTX        2248839      0.00%      0.00%
system.ruby.L2Cache_Controller.L1_PUTX_old            2      0.00%      0.00%
system.ruby.L2Cache_Controller.L2_Replacement       509817      0.00%      0.00%
system.ruby.L2Cache_Controller.L2_Replacement_clean        51124      0.00%      0.00%
system.ruby.L2Cache_Controller.Mem_Data        888621      0.00%      0.00%
system.ruby.L2Cache_Controller.Mem_Ack         560941      0.00%      0.00%
system.ruby.L2Cache_Controller.WB_Data          17553      0.00%      0.00%
system.ruby.L2Cache_Controller.WB_Data_clean       113349      0.00%      0.00%
system.ruby.L2Cache_Controller.Ack               4274      0.00%      0.00%
system.ruby.L2Cache_Controller.Ack_all           1674      0.00%      0.00%
system.ruby.L2Cache_Controller.Unblock         130039      0.00%      0.00%
system.ruby.L2Cache_Controller.Exclusive_Unblock      2381739      0.00%      0.00%
system.ruby.L2Cache_Controller.NP.L1_GETS        99867      0.00%      0.00%
system.ruby.L2Cache_Controller.NP.L1_GETX       788754      0.00%      0.00%
system.ruby.L2Cache_Controller.NP.L1_PUTX_old            1      0.00%      0.00%
system.ruby.L2Cache_Controller.SS.L1_GETS       290057      0.00%      0.00%
system.ruby.L2Cache_Controller.SS.L1_GETX            5      0.00%      0.00%
system.ruby.L2Cache_Controller.SS.L1_UPGRADE           47      0.00%      0.00%
system.ruby.L2Cache_Controller.SS.L2_Replacement          224      0.00%      0.00%
system.ruby.L2Cache_Controller.SS.L2_Replacement_clean         1201      0.00%      0.00%
system.ruby.L2Cache_Controller.M.L1_GETS      1134470      0.00%      0.00%
system.ruby.L2Cache_Controller.M.L1_GETX       361069      0.00%      0.00%
system.ruby.L2Cache_Controller.M.L2_Replacement       509504      0.00%      0.00%
system.ruby.L2Cache_Controller.M.L2_Replacement_clean        48900      0.00%      0.00%
system.ruby.L2Cache_Controller.MT.L1_GETS       130039      0.00%      0.00%
system.ruby.L2Cache_Controller.MT.L1_GETX           13      0.00%      0.00%
system.ruby.L2Cache_Controller.MT.L1_PUTX      2248839      0.00%      0.00%
system.ruby.L2Cache_Controller.MT.L2_Replacement           89      0.00%      0.00%
system.ruby.L2Cache_Controller.MT.L2_Replacement_clean         1023      0.00%      0.00%
system.ruby.L2Cache_Controller.M_I.Mem_Ack       560941      0.00%      0.00%
system.ruby.L2Cache_Controller.MT_I.Ack_all           89      0.00%      0.00%
system.ruby.L2Cache_Controller.MCT_I.L1_PUTX_old            1      0.00%      0.00%
system.ruby.L2Cache_Controller.MCT_I.WB_Data           38      0.00%      0.00%
system.ruby.L2Cache_Controller.MCT_I.WB_Data_clean          825      0.00%      0.00%
system.ruby.L2Cache_Controller.MCT_I.Ack_all          160      0.00%      0.00%
system.ruby.L2Cache_Controller.I_I.Ack           3602      0.00%      0.00%
system.ruby.L2Cache_Controller.I_I.Ack_all         1201      0.00%      0.00%
system.ruby.L2Cache_Controller.S_I.Ack            672      0.00%      0.00%
system.ruby.L2Cache_Controller.S_I.Ack_all          224      0.00%      0.00%
system.ruby.L2Cache_Controller.ISS.L1_GETS         2486      0.00%      0.00%
system.ruby.L2Cache_Controller.ISS.Mem_Data        97381      0.00%      0.00%
system.ruby.L2Cache_Controller.IS.L1_GETS           17      0.00%      0.00%
system.ruby.L2Cache_Controller.IS.Mem_Data         2486      0.00%      0.00%
system.ruby.L2Cache_Controller.IM.L1_GETX            3      0.00%      0.00%
system.ruby.L2Cache_Controller.IM.Mem_Data       788754      0.00%      0.00%
system.ruby.L2Cache_Controller.SS_MB.Exclusive_Unblock           52      0.00%      0.00%
system.ruby.L2Cache_Controller.MT_MB.L1_GETS           67      0.00%      0.00%
system.ruby.L2Cache_Controller.MT_MB.L1_GETX            3      0.00%      0.00%
system.ruby.L2Cache_Controller.MT_MB.Exclusive_Unblock      2381687      0.00%      0.00%
system.ruby.L2Cache_Controller.MT_IIB.L1_GETS        24654      0.00%      0.00%
system.ruby.L2Cache_Controller.MT_IIB.WB_Data        17494      0.00%      0.00%
system.ruby.L2Cache_Controller.MT_IIB.WB_Data_clean       112407      0.00%      0.00%
system.ruby.L2Cache_Controller.MT_IIB.Unblock          138      0.00%      0.00%
system.ruby.L2Cache_Controller.MT_IB.WB_Data           21      0.00%      0.00%
system.ruby.L2Cache_Controller.MT_IB.WB_Data_clean          117      0.00%      0.00%
system.ruby.L2Cache_Controller.MT_SB.L1_GETS            3      0.00%      0.00%
system.ruby.L2Cache_Controller.MT_SB.Unblock       129901      0.00%      0.00%

---------- End Simulation Statistics   ----------
